gem5 Simulator System.  http://gem5.org
gem5 is copyrighted software; use the --copyright option for details.

gem5 compiled Jul  9 2021 21:05:44
gem5 started Jul  9 2021 21:31:19
gem5 executing on 00d7b5b07229, pid 4283
command line: gem5/build/X86/gem5.opt -re --outdir=/autoperf/results/run_parsec/freqmine/native/kvm/1 configs-parsec-tests/run_parsec.py linux-4.19.83-stable/vmlinux-4.19.83 disk-image/parsec/parsec-image/parsec kvm freqmine native 1

info: Standard input is not a terminal, disabling listeners.
Global frequency set at 1000000000000 ticks per second
      0: system.pc.south_bridge.cmos.rtc: Real-time clock set to Sun Jan  1 00:00:00 2012
Running the simulation
Using cpu: kvm
exit first m5.simulate() because workbegin
Resetting stats at the start of ROI!
