gem5 Simulator System.  http://gem5.org
gem5 is copyrighted software; use the --copyright option for details.

gem5 compiled Jul  9 2021 21:05:44
gem5 started Jul  9 2021 21:31:31
gem5 executing on 00d7b5b07229, pid 4335
command line: gem5/build/X86/gem5.opt -re --outdir=/autoperf/results/run_parsec/canneal/native/kvm/1 configs-parsec-tests/run_parsec.py linux-4.19.83-stable/vmlinux-4.19.83 disk-image/parsec/parsec-image/parsec kvm canneal native 1

info: Standard input is not a terminal, disabling listeners.
Global frequency set at 1000000000000 ticks per second
      0: system.pc.south_bridge.cmos.rtc: Real-time clock set to Sun Jan  1 00:00:00 2012
Running the simulation
Using cpu: kvm
exit first m5.simulate() because workbegin
Resetting stats at the start of ROI!
exit second m5.simulate() because m5_exit instruction encountered
Unexpected termination of simulation!

Performance statistics:
Simulated time: 582.15s
Instructions executed: 87387702185
Ran a total of 699.327553128 simulated seconds
Total wallclock time: 616.92s, 10.28 min
