
---------- Begin Simulation Statistics ----------
final_tick                               20036070116185                       # Number of ticks from beginning of simulation (restored from checkpoints and never reset)
host_inst_rate                                6602700                       # Simulator instruction rate (inst/s)
host_mem_usage                                4603224                       # Number of bytes of host memory used
host_op_rate                                  6863676                       # Simulator op (including micro ops) rate (op/s)
host_seconds                                   600.49                       # Real time elapsed on the host
host_tick_rate                              219705594                       # Simulator tick rate (ticks/s)
sim_freq                                 1000000000000                       # Frequency of simulated ticks
sim_insts                                  3964854594                       # Number of instructions simulated
sim_ops                                    4121569226                       # Number of ops (including micro ops) simulated
sim_seconds                                  0.131931                       # Number of seconds simulated
sim_ticks                                131931036030                       # Number of ticks simulated
system.atomicCpu.committedInsts                     0                       # Number of instructions committed
system.atomicCpu.committedOps                       0                       # Number of ops (including micro ops) committed
system.atomicCpu.dtb.rdAccesses                     0                       # TLB accesses on read requests
system.atomicCpu.dtb.rdMisses                       0                       # TLB misses on read requests
system.atomicCpu.dtb.wrAccesses                     0                       # TLB accesses on write requests
system.atomicCpu.dtb.wrMisses                       0                       # TLB misses on write requests
system.atomicCpu.idle_fraction                      1                       # Percentage of idle cycles
system.atomicCpu.itb.rdAccesses                     0                       # TLB accesses on read requests
system.atomicCpu.itb.rdMisses                       0                       # TLB misses on read requests
system.atomicCpu.itb.wrAccesses                     0                       # TLB accesses on write requests
system.atomicCpu.itb.wrMisses                       0                       # TLB misses on write requests
system.atomicCpu.kern.inst.arm                      0                       # number of arm instructions executed
system.atomicCpu.kern.inst.quiesce                  0                       # number of quiesce instructions executed
system.atomicCpu.not_idle_fraction                  0                       # Percentage of non-idle cycles
system.atomicCpu.numCycles                          0                       # number of cpu cycles simulated
system.atomicCpu.numWorkItemsCompleted              0                       # number of work items this cpu completed
system.atomicCpu.numWorkItemsStarted                0                       # number of work items this cpu started
system.atomicCpu.num_busy_cycles                    0                       # Number of busy cycles
system.atomicCpu.num_conditional_control_insts            0                       # number of instructions that are conditional controls
system.atomicCpu.num_fp_alu_accesses                0                       # Number of float alu accesses
system.atomicCpu.num_fp_insts                       0                       # number of float instructions
system.atomicCpu.num_fp_register_reads              0                       # number of times the floating registers were read
system.atomicCpu.num_fp_register_writes             0                       # number of times the floating registers were written
system.atomicCpu.num_func_calls                     0                       # number of times a function call or return occured
system.atomicCpu.num_idle_cycles                    0                       # Number of idle cycles
system.atomicCpu.num_int_alu_accesses               0                       # Number of integer alu accesses
system.atomicCpu.num_int_insts                      0                       # number of integer instructions
system.atomicCpu.num_int_register_reads             0                       # number of times the integer registers were read
system.atomicCpu.num_int_register_writes            0                       # number of times the integer registers were written
system.atomicCpu.num_load_insts                     0                       # Number of load instructions
system.atomicCpu.num_mem_refs                       0                       # number of memory refs
system.atomicCpu.num_store_insts                    0                       # Number of store instructions
system.atomicCpu.num_vec_alu_accesses               0                       # Number of vector alu accesses
system.atomicCpu.num_vec_insts                      0                       # number of vector instructions
system.atomicCpu.num_vec_register_reads             0                       # number of times the vector registers were read
system.atomicCpu.num_vec_register_writes            0                       # number of times the vector registers were written
system.atomicCpu.op_class::No_OpClass               0                       # Class of executed instruction
system.atomicCpu.op_class::IntAlu                   0                       # Class of executed instruction
system.atomicCpu.op_class::IntMult                  0                       # Class of executed instruction
system.atomicCpu.op_class::IntDiv                   0                       # Class of executed instruction
system.atomicCpu.op_class::FloatAdd                 0                       # Class of executed instruction
system.atomicCpu.op_class::FloatCmp                 0                       # Class of executed instruction
system.atomicCpu.op_class::FloatCvt                 0                       # Class of executed instruction
system.atomicCpu.op_class::FloatMult                0                       # Class of executed instruction
system.atomicCpu.op_class::FloatMultAcc             0                       # Class of executed instruction
system.atomicCpu.op_class::FloatDiv                 0                       # Class of executed instruction
system.atomicCpu.op_class::FloatMisc                0                       # Class of executed instruction
system.atomicCpu.op_class::FloatSqrt                0                       # Class of executed instruction
system.atomicCpu.op_class::SimdAdd                  0                       # Class of executed instruction
system.atomicCpu.op_class::SimdAddAcc               0                       # Class of executed instruction
system.atomicCpu.op_class::SimdAlu                  0                       # Class of executed instruction
system.atomicCpu.op_class::SimdCmp                  0                       # Class of executed instruction
system.atomicCpu.op_class::SimdCvt                  0                       # Class of executed instruction
system.atomicCpu.op_class::SimdMisc                 0                       # Class of executed instruction
system.atomicCpu.op_class::SimdMult                 0                       # Class of executed instruction
system.atomicCpu.op_class::SimdMultAcc              0                       # Class of executed instruction
system.atomicCpu.op_class::SimdShift                0                       # Class of executed instruction
system.atomicCpu.op_class::SimdShiftAcc             0                       # Class of executed instruction
system.atomicCpu.op_class::SimdDiv                  0                       # Class of executed instruction
system.atomicCpu.op_class::SimdSqrt                 0                       # Class of executed instruction
system.atomicCpu.op_class::SimdFloatAdd             0                       # Class of executed instruction
system.atomicCpu.op_class::SimdFloatAlu             0                       # Class of executed instruction
system.atomicCpu.op_class::SimdFloatCmp             0                       # Class of executed instruction
system.atomicCpu.op_class::SimdFloatCvt             0                       # Class of executed instruction
system.atomicCpu.op_class::SimdFloatDiv             0                       # Class of executed instruction
system.atomicCpu.op_class::SimdFloatMisc            0                       # Class of executed instruction
system.atomicCpu.op_class::SimdFloatMult            0                       # Class of executed instruction
system.atomicCpu.op_class::SimdFloatMultAcc            0                       # Class of executed instruction
system.atomicCpu.op_class::SimdFloatSqrt            0                       # Class of executed instruction
system.atomicCpu.op_class::SimdReduceAdd            0                       # Class of executed instruction
system.atomicCpu.op_class::SimdReduceAlu            0                       # Class of executed instruction
system.atomicCpu.op_class::SimdReduceCmp            0                       # Class of executed instruction
system.atomicCpu.op_class::SimdFloatReduceAdd            0                       # Class of executed instruction
system.atomicCpu.op_class::SimdFloatReduceCmp            0                       # Class of executed instruction
system.atomicCpu.op_class::SimdAes                  0                       # Class of executed instruction
system.atomicCpu.op_class::SimdAesMix               0                       # Class of executed instruction
system.atomicCpu.op_class::SimdSha1Hash             0                       # Class of executed instruction
system.atomicCpu.op_class::SimdSha1Hash2            0                       # Class of executed instruction
system.atomicCpu.op_class::SimdSha256Hash            0                       # Class of executed instruction
system.atomicCpu.op_class::SimdSha256Hash2            0                       # Class of executed instruction
system.atomicCpu.op_class::SimdShaSigma2            0                       # Class of executed instruction
system.atomicCpu.op_class::SimdShaSigma3            0                       # Class of executed instruction
system.atomicCpu.op_class::SimdPredAlu              0                       # Class of executed instruction
system.atomicCpu.op_class::MemRead                  0                       # Class of executed instruction
system.atomicCpu.op_class::MemWrite                 0                       # Class of executed instruction
system.atomicCpu.op_class::FloatMemRead             0                       # Class of executed instruction
system.atomicCpu.op_class::FloatMemWrite            0                       # Class of executed instruction
system.atomicCpu.op_class::IprAccess                0                       # Class of executed instruction
system.atomicCpu.op_class::InstPrefetch             0                       # Class of executed instruction
system.atomicCpu.op_class::total                    0                       # Class of executed instruction
system.cpu.committedInsts                           0                       # Number of instructions committed
system.cpu.dcache.prefetcher.num_hwpf_issued        88589                       # number of hwpf issued
system.cpu.dcache.prefetcher.pfBufferHit            0                       # number of redundant prefetches already in prefetch queue
system.cpu.dcache.prefetcher.pfIdentified        88589                       # number of prefetch candidates identified
system.cpu.dcache.prefetcher.pfInCache              0                       # number of redundant prefetches already in cache/mshr dropped
system.cpu.dcache.prefetcher.pfRemovedFull            0                       # number of prefetches dropped due to prefetch queue size
system.cpu.dcache.prefetcher.pfSpanPage          1235                       # number of prefetches that crossed the page
system.cpu.dtb.rdAccesses                           0                       # TLB accesses on read requests
system.cpu.dtb.rdMisses                             0                       # TLB misses on read requests
system.cpu.dtb.wrAccesses                           0                       # TLB accesses on write requests
system.cpu.dtb.wrMisses                             0                       # TLB misses on write requests
system.cpu.icache.prefetcher.num_hwpf_issued            0                       # number of hwpf issued
system.cpu.icache.prefetcher.pfBufferHit            0                       # number of redundant prefetches already in prefetch queue
system.cpu.icache.prefetcher.pfIdentified            0                       # number of prefetch candidates identified
system.cpu.icache.prefetcher.pfInCache              0                       # number of redundant prefetches already in cache/mshr dropped
system.cpu.icache.prefetcher.pfRemovedFull            0                       # number of prefetches dropped due to prefetch queue size
system.cpu.icache.prefetcher.pfSpanPage             0                       # number of prefetches that crossed the page
system.cpu.itb.rdAccesses                           0                       # TLB accesses on read requests
system.cpu.itb.rdMisses                             0                       # TLB misses on read requests
system.cpu.itb.wrAccesses                           0                       # TLB accesses on write requests
system.cpu.itb.wrMisses                             0                       # TLB misses on write requests
system.cpu.kern.inst.arm                            0                       # number of arm instructions executed
system.cpu.kern.inst.quiesce                        0                       # number of quiesce instructions executed
system.cpu.l2bus.snoop_filter.hit_multi_requests           51                       # Number of requests hitting in the snoop filter with multiple (>1) holders of the requested data.
system.cpu.l2bus.snoop_filter.hit_multi_snoops            1                       # Number of snoops hitting in the snoop filter with multiple (>1) holders of the requested data.
system.cpu.l2bus.snoop_filter.hit_single_requests       218484                       # Number of requests hitting in the snoop filter with a single holder of the requested data.
system.cpu.l2bus.snoop_filter.hit_single_snoops          931                       # Number of snoops hitting in the snoop filter with a single holder of the requested data.
system.cpu.l2bus.snoop_filter.tot_requests       437900                       # Total number of requests made to the snoop filter.
system.cpu.l2bus.snoop_filter.tot_snoops          932                       # Total number of snoops made to the snoop filter.
system.cpu.l2cache.prefetcher.num_hwpf_issued          790                       # number of hwpf issued
system.cpu.l2cache.prefetcher.pfBufferHit            0                       # number of redundant prefetches already in prefetch queue
system.cpu.l2cache.prefetcher.pfIdentified         1039                       # number of prefetch candidates identified
system.cpu.l2cache.prefetcher.pfInCache             0                       # number of redundant prefetches already in cache/mshr dropped
system.cpu.l2cache.prefetcher.pfRemovedFull            0                       # number of prefetches dropped due to prefetch queue size
system.cpu.l2cache.prefetcher.pfSpanPage           21                       # number of prefetches that crossed the page
system.cpu.mmucache.mmubus.snoop_filter.hit_multi_requests            0                       # Number of requests hitting in the snoop filter with multiple (>1) holders of the requested data.
system.cpu.mmucache.mmubus.snoop_filter.hit_multi_snoops            0                       # Number of snoops hitting in the snoop filter with multiple (>1) holders of the requested data.
system.cpu.mmucache.mmubus.snoop_filter.hit_single_requests            0                       # Number of requests hitting in the snoop filter with a single holder of the requested data.
system.cpu.mmucache.mmubus.snoop_filter.hit_single_snoops            0                       # Number of snoops hitting in the snoop filter with a single holder of the requested data.
system.cpu.mmucache.mmubus.snoop_filter.tot_requests            0                       # Total number of requests made to the snoop filter.
system.cpu.mmucache.mmubus.snoop_filter.tot_snoops            0                       # Total number of snoops made to the snoop filter.
system.cpu.numCoalescedMMIO                         0                       # number of coalesced memory mapped IO requests
system.cpu.numCycles                                0                       # number of cpu cycles simulated
system.cpu.numExitSignal                            1                       # exits due to signal delivery
system.cpu.numHalt                                  0                       # number of VM exits due to wait for interrupt instructions
system.cpu.numHypercalls                            0                       # number of hypercalls
system.cpu.numIO                                    1                       # number of VM exits due to legacy IO
system.cpu.numInterrupts                            0                       # number of interrupts delivered
system.cpu.numMMIO                                  0                       # number of VM exits due to memory mapped IO
system.cpu.numVMExits                               1                       # total number of KVM exits
system.cpu.numVMHalfEntries                         1                       # number of KVM entries to finalize pending operations
system.cpu.numWorkItemsCompleted                    0                       # number of work items this cpu completed
system.cpu.numWorkItemsStarted                      0                       # number of work items this cpu started
system.l3bus.snoop_filter.hit_multi_requests            0                       # Number of requests hitting in the snoop filter with multiple (>1) holders of the requested data.
system.l3bus.snoop_filter.hit_multi_snoops            0                       # Number of snoops hitting in the snoop filter with multiple (>1) holders of the requested data.
system.l3bus.snoop_filter.hit_single_requests        10749                       # Number of requests hitting in the snoop filter with a single holder of the requested data.
system.l3bus.snoop_filter.hit_single_snoops            8                       # Number of snoops hitting in the snoop filter with a single holder of the requested data.
system.l3bus.snoop_filter.tot_requests          25669                       # Total number of requests made to the snoop filter.
system.l3bus.snoop_filter.tot_snoops                8                       # Total number of snoops made to the snoop filter.
system.membus.snoop_filter.hit_multi_requests           24                       # Number of requests hitting in the snoop filter with multiple (>1) holders of the requested data.
system.membus.snoop_filter.hit_multi_snoops            0                       # Number of snoops hitting in the snoop filter with multiple (>1) holders of the requested data.
system.membus.snoop_filter.hit_single_requests         2881                       # Number of requests hitting in the snoop filter with a single holder of the requested data.
system.membus.snoop_filter.hit_single_snoops            0                       # Number of snoops hitting in the snoop filter with a single holder of the requested data.
system.membus.snoop_filter.tot_requests         18669                       # Total number of requests made to the snoop filter.
system.membus.snoop_filter.tot_snoops               0                       # Total number of snoops made to the snoop filter.
system.pc.south_bridge.ide.disks0.dma_read_bytes            0                       # Number of bytes transfered via DMA reads (not PRD).
system.pc.south_bridge.ide.disks0.dma_read_full_pages            0                       # Number of full page size DMA reads (not PRD).
system.pc.south_bridge.ide.disks0.dma_read_txs            0                       # Number of DMA read transactions (not PRD).
system.pc.south_bridge.ide.disks0.dma_write_bytes       180224                       # Number of bytes transfered via DMA writes.
system.pc.south_bridge.ide.disks0.dma_write_full_pages           44                       # Number of full page size DMA writes.
system.pc.south_bridge.ide.disks0.dma_write_txs           44                       # Number of DMA write transactions.
system.pc.south_bridge.ide.disks1.dma_read_bytes            0                       # Number of bytes transfered via DMA reads (not PRD).
system.pc.south_bridge.ide.disks1.dma_read_full_pages            0                       # Number of full page size DMA reads (not PRD).
system.pc.south_bridge.ide.disks1.dma_read_txs            0                       # Number of DMA read transactions (not PRD).
system.pc.south_bridge.ide.disks1.dma_write_bytes            0                       # Number of bytes transfered via DMA writes.
system.pc.south_bridge.ide.disks1.dma_write_full_pages            0                       # Number of full page size DMA writes.
system.pc.south_bridge.ide.disks1.dma_write_txs            0                       # Number of DMA write transactions.
system.timingCpu.Branches                    19278054                       # Number of branches fetched
system.timingCpu.committedInsts             160113247                       # Number of instructions committed
system.timingCpu.committedOps               316827879                       # Number of ops (including micro ops) committed
system.timingCpu.dtb.rdAccesses              46868267                       # TLB accesses on read requests
system.timingCpu.dtb.rdMisses                    7623                       # TLB misses on read requests
system.timingCpu.dtb.wrAccesses              11178011                       # TLB accesses on write requests
system.timingCpu.dtb.wrMisses                    1130                       # TLB misses on write requests
system.timingCpu.idle_fraction               0.007832                       # Percentage of idle cycles
system.timingCpu.itb.rdAccesses                     0                       # TLB accesses on read requests
system.timingCpu.itb.rdMisses                       0                       # TLB misses on read requests
system.timingCpu.itb.wrAccesses             238083444                       # TLB accesses on write requests
system.timingCpu.itb.wrMisses                    1528                       # TLB misses on write requests
system.timingCpu.kern.inst.arm                      0                       # number of arm instructions executed
system.timingCpu.kern.inst.quiesce                  0                       # number of quiesce instructions executed
system.timingCpu.not_idle_fraction           0.992168                       # Percentage of non-idle cycles
system.timingCpu.numCycles                  300914303                       # number of cpu cycles simulated
system.timingCpu.numWorkItemsCompleted              0                       # number of work items this cpu completed
system.timingCpu.numWorkItemsStarted                0                       # number of work items this cpu started
system.timingCpu.num_busy_cycles         298557473.945576                       # Number of busy cycles
system.timingCpu.num_cc_register_reads       64646358                       # number of times the CC registers were read
system.timingCpu.num_cc_register_writes      40380760                       # number of times the CC registers were written
system.timingCpu.num_conditional_control_insts      9454600                       # number of instructions that are conditional controls
system.timingCpu.num_fp_alu_accesses        189076158                       # Number of float alu accesses
system.timingCpu.num_fp_insts               189076158                       # number of float instructions
system.timingCpu.num_fp_register_reads      278741967                       # number of times the floating registers were read
system.timingCpu.num_fp_register_writes     174149502                       # number of times the floating registers were written
system.timingCpu.num_func_calls               5833415                       # number of times a function call or return occured
system.timingCpu.num_idle_cycles         2356829.054424                       # Number of idle cycles
system.timingCpu.num_int_alu_accesses       174097501                       # Number of integer alu accesses
system.timingCpu.num_int_insts              174097501                       # number of integer instructions
system.timingCpu.num_int_register_reads     330734301                       # number of times the integer registers were read
system.timingCpu.num_int_register_writes    108122545                       # number of times the integer registers were written
system.timingCpu.num_load_insts              46861719                       # Number of load instructions
system.timingCpu.num_mem_refs                58038920                       # number of memory refs
system.timingCpu.num_store_insts             11177201                       # Number of store instructions
system.timingCpu.num_vec_alu_accesses               0                       # Number of vector alu accesses
system.timingCpu.num_vec_insts                      0                       # number of vector instructions
system.timingCpu.num_vec_register_reads             0                       # number of times the vector registers were read
system.timingCpu.num_vec_register_writes            0                       # number of times the vector registers were written
system.timingCpu.op_class::No_OpClass          213045      0.07%      0.07% # Class of executed instruction
system.timingCpu.op_class::IntAlu           131007116     41.35%     41.42% # Class of executed instruction
system.timingCpu.op_class::IntMult              10497      0.00%     41.42% # Class of executed instruction
system.timingCpu.op_class::IntDiv               19100      0.01%     41.43% # Class of executed instruction
system.timingCpu.op_class::FloatAdd          29467261      9.30%     50.73% # Class of executed instruction
system.timingCpu.op_class::FloatCmp                 0      0.00%     50.73% # Class of executed instruction
system.timingCpu.op_class::FloatCvt               176      0.00%     50.73% # Class of executed instruction
system.timingCpu.op_class::FloatMult                0      0.00%     50.73% # Class of executed instruction
system.timingCpu.op_class::FloatMultAcc             0      0.00%     50.73% # Class of executed instruction
system.timingCpu.op_class::FloatDiv                 0      0.00%     50.73% # Class of executed instruction
system.timingCpu.op_class::FloatMisc                0      0.00%     50.73% # Class of executed instruction
system.timingCpu.op_class::FloatSqrt                0      0.00%     50.73% # Class of executed instruction
system.timingCpu.op_class::SimdAdd                134      0.00%     50.73% # Class of executed instruction
system.timingCpu.op_class::SimdAddAcc               0      0.00%     50.73% # Class of executed instruction
system.timingCpu.op_class::SimdAlu           32380335     10.22%     60.95% # Class of executed instruction
system.timingCpu.op_class::SimdCmp                  0      0.00%     60.95% # Class of executed instruction
system.timingCpu.op_class::SimdCvt               3744      0.00%     60.95% # Class of executed instruction
system.timingCpu.op_class::SimdMisc           4788008      1.51%     62.46% # Class of executed instruction
system.timingCpu.op_class::SimdMult                 0      0.00%     62.46% # Class of executed instruction
system.timingCpu.op_class::SimdMultAcc              0      0.00%     62.46% # Class of executed instruction
system.timingCpu.op_class::SimdShift              112      0.00%     62.46% # Class of executed instruction
system.timingCpu.op_class::SimdShiftAcc             0      0.00%     62.46% # Class of executed instruction
system.timingCpu.op_class::SimdDiv                  0      0.00%     62.46% # Class of executed instruction
system.timingCpu.op_class::SimdSqrt                 0      0.00%     62.46% # Class of executed instruction
system.timingCpu.op_class::SimdFloatAdd      16247201      5.13%     67.59% # Class of executed instruction
system.timingCpu.op_class::SimdFloatAlu             0      0.00%     67.59% # Class of executed instruction
system.timingCpu.op_class::SimdFloatCmp             0      0.00%     67.59% # Class of executed instruction
system.timingCpu.op_class::SimdFloatCvt      18892238      5.96%     73.55% # Class of executed instruction
system.timingCpu.op_class::SimdFloatDiv       1638399      0.52%     74.07% # Class of executed instruction
system.timingCpu.op_class::SimdFloatMisc            0      0.00%     74.07% # Class of executed instruction
system.timingCpu.op_class::SimdFloatMult     23712001      7.48%     81.55% # Class of executed instruction
system.timingCpu.op_class::SimdFloatMultAcc            0      0.00%     81.55% # Class of executed instruction
system.timingCpu.op_class::SimdFloatSqrt       409599      0.13%     81.68% # Class of executed instruction
system.timingCpu.op_class::SimdReduceAdd            0      0.00%     81.68% # Class of executed instruction
system.timingCpu.op_class::SimdReduceAlu            0      0.00%     81.68% # Class of executed instruction
system.timingCpu.op_class::SimdReduceCmp            0      0.00%     81.68% # Class of executed instruction
system.timingCpu.op_class::SimdFloatReduceAdd            0      0.00%     81.68% # Class of executed instruction
system.timingCpu.op_class::SimdFloatReduceCmp            0      0.00%     81.68% # Class of executed instruction
system.timingCpu.op_class::SimdAes                  0      0.00%     81.68% # Class of executed instruction
system.timingCpu.op_class::SimdAesMix               0      0.00%     81.68% # Class of executed instruction
system.timingCpu.op_class::SimdSha1Hash             0      0.00%     81.68% # Class of executed instruction
system.timingCpu.op_class::SimdSha1Hash2            0      0.00%     81.68% # Class of executed instruction
system.timingCpu.op_class::SimdSha256Hash            0      0.00%     81.68% # Class of executed instruction
system.timingCpu.op_class::SimdSha256Hash2            0      0.00%     81.68% # Class of executed instruction
system.timingCpu.op_class::SimdShaSigma2            0      0.00%     81.68% # Class of executed instruction
system.timingCpu.op_class::SimdShaSigma3            0      0.00%     81.68% # Class of executed instruction
system.timingCpu.op_class::SimdPredAlu              0      0.00%     81.68% # Class of executed instruction
system.timingCpu.op_class::MemRead           11360795      3.59%     85.27% # Class of executed instruction
system.timingCpu.op_class::MemWrite           4885763      1.54%     86.81% # Class of executed instruction
system.timingCpu.op_class::FloatMemRead      35500924     11.21%     98.01% # Class of executed instruction
system.timingCpu.op_class::FloatMemWrite      6291438      1.99%    100.00% # Class of executed instruction
system.timingCpu.op_class::IprAccess                0      0.00%    100.00% # Class of executed instruction
system.timingCpu.op_class::InstPrefetch             0      0.00%    100.00% # Class of executed instruction
system.timingCpu.op_class::total            316827886                       # Class of executed instruction
system.bridge.pwrStateResidencyTicks::UNDEFINED 20036070116185                       # Cumulative time (in ticks) in various power states
system.mem_cntrls8.pwrStateResidencyTicks::UNDEFINED 20036070116185                       # Cumulative time (in ticks) in various power states
system.mem_cntrls8.bytes_read::.cpu.dcache.prefetcher          192                       # Number of bytes read from this memory
system.mem_cntrls8.bytes_read::.cpu.l2cache.prefetcher          256                       # Number of bytes read from this memory
system.mem_cntrls8.bytes_read::.timingCpu.dtb.walker         1024                       # Number of bytes read from this memory
system.mem_cntrls8.bytes_read::.timingCpu.itb.walker          128                       # Number of bytes read from this memory
system.mem_cntrls8.bytes_read::.timingCpu.inst       181888                       # Number of bytes read from this memory
system.mem_cntrls8.bytes_read::.timingCpu.data       203648                       # Number of bytes read from this memory
system.mem_cntrls8.bytes_read::total           387136                       # Number of bytes read from this memory
system.mem_cntrls8.bytes_inst_read::.timingCpu.inst       181888                       # Number of instructions bytes read from this memory
system.mem_cntrls8.bytes_inst_read::total       181888                       # Number of instructions bytes read from this memory
system.mem_cntrls8.bytes_written::.writebacks       179200                       # Number of bytes written to this memory
system.mem_cntrls8.bytes_written::total        179200                       # Number of bytes written to this memory
system.mem_cntrls8.num_reads::.cpu.dcache.prefetcher            3                       # Number of read requests responded to by this memory
system.mem_cntrls8.num_reads::.cpu.l2cache.prefetcher            4                       # Number of read requests responded to by this memory
system.mem_cntrls8.num_reads::.timingCpu.dtb.walker           16                       # Number of read requests responded to by this memory
system.mem_cntrls8.num_reads::.timingCpu.itb.walker            2                       # Number of read requests responded to by this memory
system.mem_cntrls8.num_reads::.timingCpu.inst         2842                       # Number of read requests responded to by this memory
system.mem_cntrls8.num_reads::.timingCpu.data         3182                       # Number of read requests responded to by this memory
system.mem_cntrls8.num_reads::total              6049                       # Number of read requests responded to by this memory
system.mem_cntrls8.num_writes::.writebacks         2800                       # Number of write requests responded to by this memory
system.mem_cntrls8.num_writes::total             2800                       # Number of write requests responded to by this memory
system.mem_cntrls8.bw_read::.cpu.dcache.prefetcher         1455                       # Total read bandwidth from this memory (bytes/s)
system.mem_cntrls8.bw_read::.cpu.l2cache.prefetcher         1940                       # Total read bandwidth from this memory (bytes/s)
system.mem_cntrls8.bw_read::.timingCpu.dtb.walker         7762                       # Total read bandwidth from this memory (bytes/s)
system.mem_cntrls8.bw_read::.timingCpu.itb.walker          970                       # Total read bandwidth from this memory (bytes/s)
system.mem_cntrls8.bw_read::.timingCpu.inst      1378660                       # Total read bandwidth from this memory (bytes/s)
system.mem_cntrls8.bw_read::.timingCpu.data      1543594                       # Total read bandwidth from this memory (bytes/s)
system.mem_cntrls8.bw_read::total             2934382                       # Total read bandwidth from this memory (bytes/s)
system.mem_cntrls8.bw_inst_read::.timingCpu.inst      1378660                       # Instruction read bandwidth from this memory (bytes/s)
system.mem_cntrls8.bw_inst_read::total        1378660                       # Instruction read bandwidth from this memory (bytes/s)
system.mem_cntrls8.bw_write::.writebacks      1358285                       # Write bandwidth from this memory (bytes/s)
system.mem_cntrls8.bw_write::total            1358285                       # Write bandwidth from this memory (bytes/s)
system.mem_cntrls8.bw_total::.writebacks      1358285                       # Total bandwidth to/from this memory (bytes/s)
system.mem_cntrls8.bw_total::.cpu.dcache.prefetcher         1455                       # Total bandwidth to/from this memory (bytes/s)
system.mem_cntrls8.bw_total::.cpu.l2cache.prefetcher         1940                       # Total bandwidth to/from this memory (bytes/s)
system.mem_cntrls8.bw_total::.timingCpu.dtb.walker         7762                       # Total bandwidth to/from this memory (bytes/s)
system.mem_cntrls8.bw_total::.timingCpu.itb.walker          970                       # Total bandwidth to/from this memory (bytes/s)
system.mem_cntrls8.bw_total::.timingCpu.inst      1378660                       # Total bandwidth to/from this memory (bytes/s)
system.mem_cntrls8.bw_total::.timingCpu.data      1543594                       # Total bandwidth to/from this memory (bytes/s)
system.mem_cntrls8.bw_total::total            4292667                       # Total bandwidth to/from this memory (bytes/s)
system.mem_cntrls8.avgPriority_.writebacks::samples      2800.00                       # Average QoS priority value for accepted requests
system.mem_cntrls8.avgPriority_.cpu.dcache.prefetcher::samples         3.00                       # Average QoS priority value for accepted requests
system.mem_cntrls8.avgPriority_.cpu.l2cache.prefetcher::samples         4.00                       # Average QoS priority value for accepted requests
system.mem_cntrls8.avgPriority_.timingCpu.dtb.walker::samples        16.00                       # Average QoS priority value for accepted requests
system.mem_cntrls8.avgPriority_.timingCpu.itb.walker::samples         2.00                       # Average QoS priority value for accepted requests
system.mem_cntrls8.avgPriority_.timingCpu.inst::samples      2842.00                       # Average QoS priority value for accepted requests
system.mem_cntrls8.avgPriority_.timingCpu.data::samples      3073.00                       # Average QoS priority value for accepted requests
system.mem_cntrls8.priorityMinLatency    0.000000017492                       # per QoS priority minimum request to response latency (s)
system.mem_cntrls8.priorityMaxLatency    0.001847566108                       # per QoS priority maximum request to response latency (s)
system.mem_cntrls8.numReadWriteTurnArounds           76                       # Number of turnarounds from READ to WRITE
system.mem_cntrls8.numWriteReadTurnArounds           76                       # Number of turnarounds from WRITE to READ
system.mem_cntrls8.numStayReadState             45672                       # Number of times bus staying in READ state
system.mem_cntrls8.numStayWriteState             2690                       # Number of times bus staying in WRITE state
system.mem_cntrls8.readReqs                      6049                       # Number of read requests accepted
system.mem_cntrls8.writeReqs                     2800                       # Number of write requests accepted
system.mem_cntrls8.readBursts                    6049                       # Number of DRAM read bursts, including those serviced by the write queue
system.mem_cntrls8.writeBursts                   2800                       # Number of DRAM write bursts, including those merged in the write queue
system.mem_cntrls8.servicedByWrQ                  109                       # Number of DRAM read bursts serviced by the write queue
system.mem_cntrls8.mergedWrBursts                   0                       # Number of DRAM write bursts merged with an existing one
system.mem_cntrls8.neitherReadNorWriteReqs            0                       # Number of requests that are neither read nor write
system.mem_cntrls8.perBankRdBursts::0             156                       # Per bank write bursts
system.mem_cntrls8.perBankRdBursts::1              66                       # Per bank write bursts
system.mem_cntrls8.perBankRdBursts::2              63                       # Per bank write bursts
system.mem_cntrls8.perBankRdBursts::3             107                       # Per bank write bursts
system.mem_cntrls8.perBankRdBursts::4              74                       # Per bank write bursts
system.mem_cntrls8.perBankRdBursts::5             135                       # Per bank write bursts
system.mem_cntrls8.perBankRdBursts::6             305                       # Per bank write bursts
system.mem_cntrls8.perBankRdBursts::7             282                       # Per bank write bursts
system.mem_cntrls8.perBankRdBursts::8             276                       # Per bank write bursts
system.mem_cntrls8.perBankRdBursts::9             257                       # Per bank write bursts
system.mem_cntrls8.perBankRdBursts::10            284                       # Per bank write bursts
system.mem_cntrls8.perBankRdBursts::11            221                       # Per bank write bursts
system.mem_cntrls8.perBankRdBursts::12            218                       # Per bank write bursts
system.mem_cntrls8.perBankRdBursts::13            176                       # Per bank write bursts
system.mem_cntrls8.perBankRdBursts::14            245                       # Per bank write bursts
system.mem_cntrls8.perBankRdBursts::15            201                       # Per bank write bursts
system.mem_cntrls8.perBankRdBursts::16            204                       # Per bank write bursts
system.mem_cntrls8.perBankRdBursts::17            226                       # Per bank write bursts
system.mem_cntrls8.perBankRdBursts::18            204                       # Per bank write bursts
system.mem_cntrls8.perBankRdBursts::19            283                       # Per bank write bursts
system.mem_cntrls8.perBankRdBursts::20            209                       # Per bank write bursts
system.mem_cntrls8.perBankRdBursts::21            179                       # Per bank write bursts
system.mem_cntrls8.perBankRdBursts::22            180                       # Per bank write bursts
system.mem_cntrls8.perBankRdBursts::23            255                       # Per bank write bursts
system.mem_cntrls8.perBankRdBursts::24            250                       # Per bank write bursts
system.mem_cntrls8.perBankRdBursts::25            168                       # Per bank write bursts
system.mem_cntrls8.perBankRdBursts::26            113                       # Per bank write bursts
system.mem_cntrls8.perBankRdBursts::27            141                       # Per bank write bursts
system.mem_cntrls8.perBankRdBursts::28             67                       # Per bank write bursts
system.mem_cntrls8.perBankRdBursts::29             90                       # Per bank write bursts
system.mem_cntrls8.perBankRdBursts::30            144                       # Per bank write bursts
system.mem_cntrls8.perBankRdBursts::31            161                       # Per bank write bursts
system.mem_cntrls8.perBankWrBursts::0               0                       # Per bank write bursts
system.mem_cntrls8.perBankWrBursts::1               0                       # Per bank write bursts
system.mem_cntrls8.perBankWrBursts::2               0                       # Per bank write bursts
system.mem_cntrls8.perBankWrBursts::3               0                       # Per bank write bursts
system.mem_cntrls8.perBankWrBursts::4               0                       # Per bank write bursts
system.mem_cntrls8.perBankWrBursts::5              64                       # Per bank write bursts
system.mem_cntrls8.perBankWrBursts::6             128                       # Per bank write bursts
system.mem_cntrls8.perBankWrBursts::7             128                       # Per bank write bursts
system.mem_cntrls8.perBankWrBursts::8             128                       # Per bank write bursts
system.mem_cntrls8.perBankWrBursts::9             128                       # Per bank write bursts
system.mem_cntrls8.perBankWrBursts::10            128                       # Per bank write bursts
system.mem_cntrls8.perBankWrBursts::11            128                       # Per bank write bursts
system.mem_cntrls8.perBankWrBursts::12            128                       # Per bank write bursts
system.mem_cntrls8.perBankWrBursts::13            128                       # Per bank write bursts
system.mem_cntrls8.perBankWrBursts::14            128                       # Per bank write bursts
system.mem_cntrls8.perBankWrBursts::15            128                       # Per bank write bursts
system.mem_cntrls8.perBankWrBursts::16            128                       # Per bank write bursts
system.mem_cntrls8.perBankWrBursts::17            128                       # Per bank write bursts
system.mem_cntrls8.perBankWrBursts::18            128                       # Per bank write bursts
system.mem_cntrls8.perBankWrBursts::19            128                       # Per bank write bursts
system.mem_cntrls8.perBankWrBursts::20            128                       # Per bank write bursts
system.mem_cntrls8.perBankWrBursts::21            128                       # Per bank write bursts
system.mem_cntrls8.perBankWrBursts::22            128                       # Per bank write bursts
system.mem_cntrls8.perBankWrBursts::23            128                       # Per bank write bursts
system.mem_cntrls8.perBankWrBursts::24            128                       # Per bank write bursts
system.mem_cntrls8.perBankWrBursts::25            128                       # Per bank write bursts
system.mem_cntrls8.perBankWrBursts::26             82                       # Per bank write bursts
system.mem_cntrls8.perBankWrBursts::27             32                       # Per bank write bursts
system.mem_cntrls8.perBankWrBursts::28              0                       # Per bank write bursts
system.mem_cntrls8.perBankWrBursts::29              0                       # Per bank write bursts
system.mem_cntrls8.perBankWrBursts::30              0                       # Per bank write bursts
system.mem_cntrls8.perBankWrBursts::31              0                       # Per bank write bursts
system.mem_cntrls8.avgRdQLen                     0.99                       # Average read queue length when enqueuing
system.mem_cntrls8.avgWrQLen                   112.43                       # Average write queue length when enqueuing
system.mem_cntrls8.totQLat                   50744499                       # Total ticks spent queuing
system.mem_cntrls8.totBusLat                 19792080                       # Total ticks spent in databus transfers
system.mem_cntrls8.totMemAccLat             154646979                       # Total ticks spent from burst creation until serviced by the DRAM
system.mem_cntrls8.avgQLat                    8542.84                       # Average queueing delay per DRAM burst
system.mem_cntrls8.avgBusLat                  3332.00                       # Average bus latency per DRAM burst
system.mem_cntrls8.avgMemAccLat              26034.84                       # Average memory access latency per DRAM burst
system.mem_cntrls8.numRdRetry                       0                       # Number of times read queue was full causing retry
system.mem_cntrls8.numWrRetry                      53                       # Number of times write queue was full causing retry
system.mem_cntrls8.readRowHits                   4871                       # Number of row buffer hits during reads
system.mem_cntrls8.writeRowHits                  2558                       # Number of row buffer hits during writes
system.mem_cntrls8.readRowHitRate               82.00                       # Row buffer hit rate for reads
system.mem_cntrls8.writeRowHitRate              91.36                       # Row buffer hit rate for writes
system.mem_cntrls8.readPktSize::0                   0                       # Read request sizes (log2)
system.mem_cntrls8.readPktSize::1                   0                       # Read request sizes (log2)
system.mem_cntrls8.readPktSize::2                   0                       # Read request sizes (log2)
system.mem_cntrls8.readPktSize::3                   0                       # Read request sizes (log2)
system.mem_cntrls8.readPktSize::4                   0                       # Read request sizes (log2)
system.mem_cntrls8.readPktSize::5                   0                       # Read request sizes (log2)
system.mem_cntrls8.readPktSize::6                6049                       # Read request sizes (log2)
system.mem_cntrls8.writePktSize::0                  0                       # Write request sizes (log2)
system.mem_cntrls8.writePktSize::1                  0                       # Write request sizes (log2)
system.mem_cntrls8.writePktSize::2                  0                       # Write request sizes (log2)
system.mem_cntrls8.writePktSize::3                  0                       # Write request sizes (log2)
system.mem_cntrls8.writePktSize::4                  0                       # Write request sizes (log2)
system.mem_cntrls8.writePktSize::5                  0                       # Write request sizes (log2)
system.mem_cntrls8.writePktSize::6               2800                       # Write request sizes (log2)
system.mem_cntrls8.rdQLenPdf::0                  5933                       # What read queue length does an incoming req see
system.mem_cntrls8.rdQLenPdf::1                     2                       # What read queue length does an incoming req see
system.mem_cntrls8.rdQLenPdf::2                     2                       # What read queue length does an incoming req see
system.mem_cntrls8.rdQLenPdf::3                     2                       # What read queue length does an incoming req see
system.mem_cntrls8.rdQLenPdf::4                     1                       # What read queue length does an incoming req see
system.mem_cntrls8.rdQLenPdf::5                     0                       # What read queue length does an incoming req see
system.mem_cntrls8.rdQLenPdf::6                     0                       # What read queue length does an incoming req see
system.mem_cntrls8.rdQLenPdf::7                     0                       # What read queue length does an incoming req see
system.mem_cntrls8.rdQLenPdf::8                     0                       # What read queue length does an incoming req see
system.mem_cntrls8.rdQLenPdf::9                     0                       # What read queue length does an incoming req see
system.mem_cntrls8.rdQLenPdf::10                    0                       # What read queue length does an incoming req see
system.mem_cntrls8.rdQLenPdf::11                    0                       # What read queue length does an incoming req see
system.mem_cntrls8.rdQLenPdf::12                    0                       # What read queue length does an incoming req see
system.mem_cntrls8.rdQLenPdf::13                    0                       # What read queue length does an incoming req see
system.mem_cntrls8.rdQLenPdf::14                    0                       # What read queue length does an incoming req see
system.mem_cntrls8.rdQLenPdf::15                    0                       # What read queue length does an incoming req see
system.mem_cntrls8.rdQLenPdf::16                    0                       # What read queue length does an incoming req see
system.mem_cntrls8.rdQLenPdf::17                    0                       # What read queue length does an incoming req see
system.mem_cntrls8.rdQLenPdf::18                    0                       # What read queue length does an incoming req see
system.mem_cntrls8.rdQLenPdf::19                    0                       # What read queue length does an incoming req see
system.mem_cntrls8.rdQLenPdf::20                    0                       # What read queue length does an incoming req see
system.mem_cntrls8.rdQLenPdf::21                    0                       # What read queue length does an incoming req see
system.mem_cntrls8.rdQLenPdf::22                    0                       # What read queue length does an incoming req see
system.mem_cntrls8.rdQLenPdf::23                    0                       # What read queue length does an incoming req see
system.mem_cntrls8.rdQLenPdf::24                    0                       # What read queue length does an incoming req see
system.mem_cntrls8.rdQLenPdf::25                    0                       # What read queue length does an incoming req see
system.mem_cntrls8.rdQLenPdf::26                    0                       # What read queue length does an incoming req see
system.mem_cntrls8.rdQLenPdf::27                    0                       # What read queue length does an incoming req see
system.mem_cntrls8.rdQLenPdf::28                    0                       # What read queue length does an incoming req see
system.mem_cntrls8.rdQLenPdf::29                    0                       # What read queue length does an incoming req see
system.mem_cntrls8.rdQLenPdf::30                    0                       # What read queue length does an incoming req see
system.mem_cntrls8.rdQLenPdf::31                    0                       # What read queue length does an incoming req see
system.mem_cntrls8.rdQLenPdf::32                    0                       # What read queue length does an incoming req see
system.mem_cntrls8.rdQLenPdf::33                    0                       # What read queue length does an incoming req see
system.mem_cntrls8.rdQLenPdf::34                    0                       # What read queue length does an incoming req see
system.mem_cntrls8.rdQLenPdf::35                    0                       # What read queue length does an incoming req see
system.mem_cntrls8.rdQLenPdf::36                    0                       # What read queue length does an incoming req see
system.mem_cntrls8.rdQLenPdf::37                    0                       # What read queue length does an incoming req see
system.mem_cntrls8.rdQLenPdf::38                    0                       # What read queue length does an incoming req see
system.mem_cntrls8.rdQLenPdf::39                    0                       # What read queue length does an incoming req see
system.mem_cntrls8.rdQLenPdf::40                    0                       # What read queue length does an incoming req see
system.mem_cntrls8.rdQLenPdf::41                    0                       # What read queue length does an incoming req see
system.mem_cntrls8.rdQLenPdf::42                    0                       # What read queue length does an incoming req see
system.mem_cntrls8.rdQLenPdf::43                    0                       # What read queue length does an incoming req see
system.mem_cntrls8.rdQLenPdf::44                    0                       # What read queue length does an incoming req see
system.mem_cntrls8.rdQLenPdf::45                    0                       # What read queue length does an incoming req see
system.mem_cntrls8.rdQLenPdf::46                    0                       # What read queue length does an incoming req see
system.mem_cntrls8.rdQLenPdf::47                    0                       # What read queue length does an incoming req see
system.mem_cntrls8.rdQLenPdf::48                    0                       # What read queue length does an incoming req see
system.mem_cntrls8.rdQLenPdf::49                    0                       # What read queue length does an incoming req see
system.mem_cntrls8.rdQLenPdf::50                    0                       # What read queue length does an incoming req see
system.mem_cntrls8.rdQLenPdf::51                    0                       # What read queue length does an incoming req see
system.mem_cntrls8.rdQLenPdf::52                    0                       # What read queue length does an incoming req see
system.mem_cntrls8.rdQLenPdf::53                    0                       # What read queue length does an incoming req see
system.mem_cntrls8.rdQLenPdf::54                    0                       # What read queue length does an incoming req see
system.mem_cntrls8.rdQLenPdf::55                    0                       # What read queue length does an incoming req see
system.mem_cntrls8.rdQLenPdf::56                    0                       # What read queue length does an incoming req see
system.mem_cntrls8.rdQLenPdf::57                    0                       # What read queue length does an incoming req see
system.mem_cntrls8.rdQLenPdf::58                    0                       # What read queue length does an incoming req see
system.mem_cntrls8.rdQLenPdf::59                    0                       # What read queue length does an incoming req see
system.mem_cntrls8.rdQLenPdf::60                    0                       # What read queue length does an incoming req see
system.mem_cntrls8.rdQLenPdf::61                    0                       # What read queue length does an incoming req see
system.mem_cntrls8.rdQLenPdf::62                    0                       # What read queue length does an incoming req see
system.mem_cntrls8.rdQLenPdf::63                    0                       # What read queue length does an incoming req see
system.mem_cntrls8.wrQLenPdf::0                     1                       # What write queue length does an incoming req see
system.mem_cntrls8.wrQLenPdf::1                     1                       # What write queue length does an incoming req see
system.mem_cntrls8.wrQLenPdf::2                     1                       # What write queue length does an incoming req see
system.mem_cntrls8.wrQLenPdf::3                     1                       # What write queue length does an incoming req see
system.mem_cntrls8.wrQLenPdf::4                     1                       # What write queue length does an incoming req see
system.mem_cntrls8.wrQLenPdf::5                     1                       # What write queue length does an incoming req see
system.mem_cntrls8.wrQLenPdf::6                     1                       # What write queue length does an incoming req see
system.mem_cntrls8.wrQLenPdf::7                     1                       # What write queue length does an incoming req see
system.mem_cntrls8.wrQLenPdf::8                     1                       # What write queue length does an incoming req see
system.mem_cntrls8.wrQLenPdf::9                     1                       # What write queue length does an incoming req see
system.mem_cntrls8.wrQLenPdf::10                    1                       # What write queue length does an incoming req see
system.mem_cntrls8.wrQLenPdf::11                    1                       # What write queue length does an incoming req see
system.mem_cntrls8.wrQLenPdf::12                    1                       # What write queue length does an incoming req see
system.mem_cntrls8.wrQLenPdf::13                    1                       # What write queue length does an incoming req see
system.mem_cntrls8.wrQLenPdf::14                    1                       # What write queue length does an incoming req see
system.mem_cntrls8.wrQLenPdf::15                    1                       # What write queue length does an incoming req see
system.mem_cntrls8.wrQLenPdf::16                    1                       # What write queue length does an incoming req see
system.mem_cntrls8.wrQLenPdf::17                    1                       # What write queue length does an incoming req see
system.mem_cntrls8.wrQLenPdf::18                    1                       # What write queue length does an incoming req see
system.mem_cntrls8.wrQLenPdf::19                    1                       # What write queue length does an incoming req see
system.mem_cntrls8.wrQLenPdf::20                    1                       # What write queue length does an incoming req see
system.mem_cntrls8.wrQLenPdf::21                    1                       # What write queue length does an incoming req see
system.mem_cntrls8.wrQLenPdf::22                    1                       # What write queue length does an incoming req see
system.mem_cntrls8.wrQLenPdf::23                    1                       # What write queue length does an incoming req see
system.mem_cntrls8.wrQLenPdf::24                    1                       # What write queue length does an incoming req see
system.mem_cntrls8.wrQLenPdf::25                    1                       # What write queue length does an incoming req see
system.mem_cntrls8.wrQLenPdf::26                    1                       # What write queue length does an incoming req see
system.mem_cntrls8.wrQLenPdf::27                    1                       # What write queue length does an incoming req see
system.mem_cntrls8.wrQLenPdf::28                    1                       # What write queue length does an incoming req see
system.mem_cntrls8.wrQLenPdf::29                    1                       # What write queue length does an incoming req see
system.mem_cntrls8.wrQLenPdf::30                    1                       # What write queue length does an incoming req see
system.mem_cntrls8.wrQLenPdf::31                    1                       # What write queue length does an incoming req see
system.mem_cntrls8.wrQLenPdf::32                    1                       # What write queue length does an incoming req see
system.mem_cntrls8.wrQLenPdf::33                    1                       # What write queue length does an incoming req see
system.mem_cntrls8.wrQLenPdf::34                    1                       # What write queue length does an incoming req see
system.mem_cntrls8.wrQLenPdf::35                    1                       # What write queue length does an incoming req see
system.mem_cntrls8.wrQLenPdf::36                    1                       # What write queue length does an incoming req see
system.mem_cntrls8.wrQLenPdf::37                    1                       # What write queue length does an incoming req see
system.mem_cntrls8.wrQLenPdf::38                    1                       # What write queue length does an incoming req see
system.mem_cntrls8.wrQLenPdf::39                    1                       # What write queue length does an incoming req see
system.mem_cntrls8.wrQLenPdf::40                    1                       # What write queue length does an incoming req see
system.mem_cntrls8.wrQLenPdf::41                    1                       # What write queue length does an incoming req see
system.mem_cntrls8.wrQLenPdf::42                    1                       # What write queue length does an incoming req see
system.mem_cntrls8.wrQLenPdf::43                    1                       # What write queue length does an incoming req see
system.mem_cntrls8.wrQLenPdf::44                    1                       # What write queue length does an incoming req see
system.mem_cntrls8.wrQLenPdf::45                    1                       # What write queue length does an incoming req see
system.mem_cntrls8.wrQLenPdf::46                    1                       # What write queue length does an incoming req see
system.mem_cntrls8.wrQLenPdf::47                    6                       # What write queue length does an incoming req see
system.mem_cntrls8.wrQLenPdf::48                    8                       # What write queue length does an incoming req see
system.mem_cntrls8.wrQLenPdf::49                   11                       # What write queue length does an incoming req see
system.mem_cntrls8.wrQLenPdf::50                   14                       # What write queue length does an incoming req see
system.mem_cntrls8.wrQLenPdf::51                   18                       # What write queue length does an incoming req see
system.mem_cntrls8.wrQLenPdf::52                   21                       # What write queue length does an incoming req see
system.mem_cntrls8.wrQLenPdf::53                   22                       # What write queue length does an incoming req see
system.mem_cntrls8.wrQLenPdf::54                   22                       # What write queue length does an incoming req see
system.mem_cntrls8.wrQLenPdf::55                   28                       # What write queue length does an incoming req see
system.mem_cntrls8.wrQLenPdf::56                   33                       # What write queue length does an incoming req see
system.mem_cntrls8.wrQLenPdf::57                   42                       # What write queue length does an incoming req see
system.mem_cntrls8.wrQLenPdf::58                   44                       # What write queue length does an incoming req see
system.mem_cntrls8.wrQLenPdf::59                   47                       # What write queue length does an incoming req see
system.mem_cntrls8.wrQLenPdf::60                   54                       # What write queue length does an incoming req see
system.mem_cntrls8.wrQLenPdf::61                   47                       # What write queue length does an incoming req see
system.mem_cntrls8.wrQLenPdf::62                   54                       # What write queue length does an incoming req see
system.mem_cntrls8.wrQLenPdf::63                   51                       # What write queue length does an incoming req see
system.mem_cntrls8.wrQLenPdf::64                   51                       # What write queue length does an incoming req see
system.mem_cntrls8.wrQLenPdf::65                   34                       # What write queue length does an incoming req see
system.mem_cntrls8.wrQLenPdf::66                   38                       # What write queue length does an incoming req see
system.mem_cntrls8.wrQLenPdf::67                   32                       # What write queue length does an incoming req see
system.mem_cntrls8.wrQLenPdf::68                   30                       # What write queue length does an incoming req see
system.mem_cntrls8.wrQLenPdf::69                   26                       # What write queue length does an incoming req see
system.mem_cntrls8.wrQLenPdf::70                   29                       # What write queue length does an incoming req see
system.mem_cntrls8.wrQLenPdf::71                   25                       # What write queue length does an incoming req see
system.mem_cntrls8.wrQLenPdf::72                   25                       # What write queue length does an incoming req see
system.mem_cntrls8.wrQLenPdf::73                   28                       # What write queue length does an incoming req see
system.mem_cntrls8.wrQLenPdf::74                   25                       # What write queue length does an incoming req see
system.mem_cntrls8.wrQLenPdf::75                   25                       # What write queue length does an incoming req see
system.mem_cntrls8.wrQLenPdf::76                   23                       # What write queue length does an incoming req see
system.mem_cntrls8.wrQLenPdf::77                   27                       # What write queue length does an incoming req see
system.mem_cntrls8.wrQLenPdf::78                   31                       # What write queue length does an incoming req see
system.mem_cntrls8.wrQLenPdf::79                   35                       # What write queue length does an incoming req see
system.mem_cntrls8.wrQLenPdf::80                   43                       # What write queue length does an incoming req see
system.mem_cntrls8.wrQLenPdf::81                   49                       # What write queue length does an incoming req see
system.mem_cntrls8.wrQLenPdf::82                   58                       # What write queue length does an incoming req see
system.mem_cntrls8.wrQLenPdf::83                   64                       # What write queue length does an incoming req see
system.mem_cntrls8.wrQLenPdf::84                   62                       # What write queue length does an incoming req see
system.mem_cntrls8.wrQLenPdf::85                   67                       # What write queue length does an incoming req see
system.mem_cntrls8.wrQLenPdf::86                   71                       # What write queue length does an incoming req see
system.mem_cntrls8.wrQLenPdf::87                   71                       # What write queue length does an incoming req see
system.mem_cntrls8.wrQLenPdf::88                   62                       # What write queue length does an incoming req see
system.mem_cntrls8.wrQLenPdf::89                   60                       # What write queue length does an incoming req see
system.mem_cntrls8.wrQLenPdf::90                   52                       # What write queue length does an incoming req see
system.mem_cntrls8.wrQLenPdf::91                   43                       # What write queue length does an incoming req see
system.mem_cntrls8.wrQLenPdf::92                   35                       # What write queue length does an incoming req see
system.mem_cntrls8.wrQLenPdf::93                   30                       # What write queue length does an incoming req see
system.mem_cntrls8.wrQLenPdf::94                   34                       # What write queue length does an incoming req see
system.mem_cntrls8.wrQLenPdf::95                   28                       # What write queue length does an incoming req see
system.mem_cntrls8.wrQLenPdf::96                   24                       # What write queue length does an incoming req see
system.mem_cntrls8.wrQLenPdf::97                   30                       # What write queue length does an incoming req see
system.mem_cntrls8.wrQLenPdf::98                   33                       # What write queue length does an incoming req see
system.mem_cntrls8.wrQLenPdf::99                   26                       # What write queue length does an incoming req see
system.mem_cntrls8.wrQLenPdf::100                  32                       # What write queue length does an incoming req see
system.mem_cntrls8.wrQLenPdf::101                  39                       # What write queue length does an incoming req see
system.mem_cntrls8.wrQLenPdf::102                  40                       # What write queue length does an incoming req see
system.mem_cntrls8.wrQLenPdf::103                  32                       # What write queue length does an incoming req see
system.mem_cntrls8.wrQLenPdf::104                  37                       # What write queue length does an incoming req see
system.mem_cntrls8.wrQLenPdf::105                  35                       # What write queue length does an incoming req see
system.mem_cntrls8.wrQLenPdf::106                  37                       # What write queue length does an incoming req see
system.mem_cntrls8.wrQLenPdf::107                  20                       # What write queue length does an incoming req see
system.mem_cntrls8.wrQLenPdf::108                  10                       # What write queue length does an incoming req see
system.mem_cntrls8.wrQLenPdf::109                   7                       # What write queue length does an incoming req see
system.mem_cntrls8.wrQLenPdf::110                   8                       # What write queue length does an incoming req see
system.mem_cntrls8.wrQLenPdf::111                   8                       # What write queue length does an incoming req see
system.mem_cntrls8.wrQLenPdf::112                   9                       # What write queue length does an incoming req see
system.mem_cntrls8.wrQLenPdf::113                  10                       # What write queue length does an incoming req see
system.mem_cntrls8.wrQLenPdf::114                  14                       # What write queue length does an incoming req see
system.mem_cntrls8.wrQLenPdf::115                  21                       # What write queue length does an incoming req see
system.mem_cntrls8.wrQLenPdf::116                  31                       # What write queue length does an incoming req see
system.mem_cntrls8.wrQLenPdf::117                  29                       # What write queue length does an incoming req see
system.mem_cntrls8.wrQLenPdf::118                  31                       # What write queue length does an incoming req see
system.mem_cntrls8.wrQLenPdf::119                  34                       # What write queue length does an incoming req see
system.mem_cntrls8.wrQLenPdf::120                  29                       # What write queue length does an incoming req see
system.mem_cntrls8.wrQLenPdf::121                  36                       # What write queue length does an incoming req see
system.mem_cntrls8.wrQLenPdf::122                  33                       # What write queue length does an incoming req see
system.mem_cntrls8.wrQLenPdf::123                  37                       # What write queue length does an incoming req see
system.mem_cntrls8.wrQLenPdf::124                  39                       # What write queue length does an incoming req see
system.mem_cntrls8.wrQLenPdf::125                  36                       # What write queue length does an incoming req see
system.mem_cntrls8.wrQLenPdf::126                  36                       # What write queue length does an incoming req see
system.mem_cntrls8.wrQLenPdf::127                  75                       # What write queue length does an incoming req see
system.mem_cntrls8.bytesPerActivate::samples         1249                       # Bytes accessed per row activation
system.mem_cntrls8.bytesPerActivate::mean   444.669335                       # Bytes accessed per row activation
system.mem_cntrls8.bytesPerActivate::gmean   271.136382                       # Bytes accessed per row activation
system.mem_cntrls8.bytesPerActivate::stdev   389.859640                       # Bytes accessed per row activation
system.mem_cntrls8.bytesPerActivate::0-127          284     22.74%     22.74% # Bytes accessed per row activation
system.mem_cntrls8.bytesPerActivate::128-255          290     23.22%     45.96% # Bytes accessed per row activation
system.mem_cntrls8.bytesPerActivate::256-383          152     12.17%     58.13% # Bytes accessed per row activation
system.mem_cntrls8.bytesPerActivate::384-511           71      5.68%     63.81% # Bytes accessed per row activation
system.mem_cntrls8.bytesPerActivate::512-639           52      4.16%     67.97% # Bytes accessed per row activation
system.mem_cntrls8.bytesPerActivate::640-767           31      2.48%     70.46% # Bytes accessed per row activation
system.mem_cntrls8.bytesPerActivate::768-895           23      1.84%     72.30% # Bytes accessed per row activation
system.mem_cntrls8.bytesPerActivate::896-1023           17      1.36%     73.66% # Bytes accessed per row activation
system.mem_cntrls8.bytesPerActivate::1024-1151          329     26.34%    100.00% # Bytes accessed per row activation
system.mem_cntrls8.bytesPerActivate::total         1249                       # Bytes accessed per row activation
system.mem_cntrls8.rdPerTurnAround::samples           76                       # Reads before turning the bus around for writes
system.mem_cntrls8.rdPerTurnAround::mean    49.750000                       # Reads before turning the bus around for writes
system.mem_cntrls8.rdPerTurnAround::gmean     1.445260                       # Reads before turning the bus around for writes
system.mem_cntrls8.rdPerTurnAround::stdev   353.546230                       # Reads before turning the bus around for writes
system.mem_cntrls8.rdPerTurnAround::0-63           74     97.37%     97.37% # Reads before turning the bus around for writes
system.mem_cntrls8.rdPerTurnAround::576-639            1      1.32%     98.68% # Reads before turning the bus around for writes
system.mem_cntrls8.rdPerTurnAround::3008-3071            1      1.32%    100.00% # Reads before turning the bus around for writes
system.mem_cntrls8.rdPerTurnAround::total           76                       # Reads before turning the bus around for writes
system.mem_cntrls8.wrPerTurnAround::samples           76                       # Writes before turning the bus around for reads
system.mem_cntrls8.wrPerTurnAround::mean    36.026316                       # Writes before turning the bus around for reads
system.mem_cntrls8.wrPerTurnAround::gmean    31.320062                       # Writes before turning the bus around for reads
system.mem_cntrls8.wrPerTurnAround::stdev    27.895507                       # Writes before turning the bus around for reads
system.mem_cntrls8.wrPerTurnAround::16-17            4      5.26%      5.26% # Writes before turning the bus around for reads
system.mem_cntrls8.wrPerTurnAround::18-19            4      5.26%     10.53% # Writes before turning the bus around for reads
system.mem_cntrls8.wrPerTurnAround::20-21            3      3.95%     14.47% # Writes before turning the bus around for reads
system.mem_cntrls8.wrPerTurnAround::22-23            5      6.58%     21.05% # Writes before turning the bus around for reads
system.mem_cntrls8.wrPerTurnAround::24-25            5      6.58%     27.63% # Writes before turning the bus around for reads
system.mem_cntrls8.wrPerTurnAround::26-27           11     14.47%     42.11% # Writes before turning the bus around for reads
system.mem_cntrls8.wrPerTurnAround::28-29           11     14.47%     56.58% # Writes before turning the bus around for reads
system.mem_cntrls8.wrPerTurnAround::30-31            6      7.89%     64.47% # Writes before turning the bus around for reads
system.mem_cntrls8.wrPerTurnAround::32-33            4      5.26%     69.74% # Writes before turning the bus around for reads
system.mem_cntrls8.wrPerTurnAround::34-35            4      5.26%     75.00% # Writes before turning the bus around for reads
system.mem_cntrls8.wrPerTurnAround::38-39            2      2.63%     77.63% # Writes before turning the bus around for reads
system.mem_cntrls8.wrPerTurnAround::40-41            1      1.32%     78.95% # Writes before turning the bus around for reads
system.mem_cntrls8.wrPerTurnAround::42-43            4      5.26%     84.21% # Writes before turning the bus around for reads
system.mem_cntrls8.wrPerTurnAround::44-45            1      1.32%     85.53% # Writes before turning the bus around for reads
system.mem_cntrls8.wrPerTurnAround::46-47            1      1.32%     86.84% # Writes before turning the bus around for reads
system.mem_cntrls8.wrPerTurnAround::50-51            2      2.63%     89.47% # Writes before turning the bus around for reads
system.mem_cntrls8.wrPerTurnAround::52-53            1      1.32%     90.79% # Writes before turning the bus around for reads
system.mem_cntrls8.wrPerTurnAround::54-55            3      3.95%     94.74% # Writes before turning the bus around for reads
system.mem_cntrls8.wrPerTurnAround::94-95            1      1.32%     96.05% # Writes before turning the bus around for reads
system.mem_cntrls8.wrPerTurnAround::106-107            1      1.32%     97.37% # Writes before turning the bus around for reads
system.mem_cntrls8.wrPerTurnAround::164-165            1      1.32%     98.68% # Writes before turning the bus around for reads
system.mem_cntrls8.wrPerTurnAround::192-193            1      1.32%    100.00% # Writes before turning the bus around for reads
system.mem_cntrls8.wrPerTurnAround::total           76                       # Writes before turning the bus around for reads
system.mem_cntrls8.bytesReadDRAM               380160                       # Total number of bytes read from DRAM
[...]
system.iobus.pkt_count_system.pc.south_bridge.ide.dma::system.iocache.cpu_side         5068                       # Packet count per connected master and slave (bytes)
system.iobus.pkt_count_system.pc.south_bridge.ide.dma::total         5068                       # Packet count per connected master and slave (bytes)
system.iobus.pkt_count_system.pc.south_bridge.io_apic.int_master::system.apicbridge.slave          672                       # Packet count per connected master and slave (bytes)
system.iobus.pkt_count_system.pc.south_bridge.io_apic.int_master::total          672                       # Packet count per connected master and slave (bytes)
system.iobus.pkt_count::total                    9566                       # Packet count per connected master and slave (bytes)
system.iobus.pkt_size_system.bridge.master::system.pc.south_bridge.ide.pio          156                       # Cumulative packet size per connected master and slave (bytes)
system.iobus.pkt_size_system.bridge.master::system.pc.com_1.pio         1775                       # Cumulative packet size per connected master and slave (bytes)
system.iobus.pkt_size_system.bridge.master::total         1931                       # Cumulative packet size per connected master and slave (bytes)
system.iobus.pkt_size_system.pc.south_bridge.ide.dma::system.iocache.cpu_side       160048                       # Cumulative packet size per connected master and slave (bytes)
system.iobus.pkt_size_system.pc.south_bridge.ide.dma::total       160048                       # Cumulative packet size per connected master and slave (bytes)
system.iobus.pkt_size_system.pc.south_bridge.io_apic.int_master::system.apicbridge.slave         1344                       # Cumulative packet size per connected master and slave (bytes)
system.iobus.pkt_size_system.pc.south_bridge.io_apic.int_master::total         1344                       # Cumulative packet size per connected master and slave (bytes)
system.iobus.pkt_size::total                   163323                       # Cumulative packet size per connected master and slave (bytes)
system.cpu.pwrStateResidencyTicks::OFF   5169387954450                       # Cumulative time (in ticks) in various power states
system.cpu.icache.pwrStateResidencyTicks::UNDEFINED 5169387954450                       # Cumulative time (in ticks) in various power states
system.cpu.icache.demand_hits::.timingCpu.inst            1                       # number of demand (read+write) hits
system.cpu.icache.demand_hits::total                1                       # number of demand (read+write) hits
system.cpu.icache.overall_hits::.timingCpu.inst            1                       # number of overall hits
system.cpu.icache.overall_hits::total               1                       # number of overall hits
system.cpu.icache.demand_accesses::.timingCpu.inst            1                       # number of demand (read+write) accesses
system.cpu.icache.demand_accesses::total            1                       # number of demand (read+write) accesses
system.cpu.icache.overall_accesses::.timingCpu.inst            1                       # number of overall (read+write) accesses
system.cpu.icache.overall_accesses::total            1                       # number of overall (read+write) accesses
system.cpu.icache.blocked_cycles::no_mshrs            0                       # number of cycles access was blocked
system.cpu.icache.blocked_cycles::no_targets            0                       # number of cycles access was blocked
system.cpu.icache.blocked::no_mshrs                 0                       # number of cycles access was blocked
system.cpu.icache.blocked::no_targets               0                       # number of cycles access was blocked
system.cpu.icache.avg_blocked_cycles::no_mshrs          nan                       # average number of cycles each access was blocked
system.cpu.icache.avg_blocked_cycles::no_targets          nan                       # average number of cycles each access was blocked
system.cpu.icache.replacements                      0                       # number of replacements
system.cpu.icache.ReadReq_hits::.timingCpu.inst            1                       # number of ReadReq hits
system.cpu.icache.ReadReq_hits::total               1                       # number of ReadReq hits
system.cpu.icache.ReadReq_accesses::.timingCpu.inst            1                       # number of ReadReq accesses(hits+misses)
system.cpu.icache.ReadReq_accesses::total            1                       # number of ReadReq accesses(hits+misses)
system.cpu.icache.prefetcher.pwrStateResidencyTicks::UNDEFINED 5169387954450                       # Cumulative time (in ticks) in various power states
system.cpu.icache.tags.pwrStateResidencyTicks::UNDEFINED 5169387954450                       # Cumulative time (in ticks) in various power states
system.cpu.icache.tags.tagsinuse             0.100407                       # Cycle average of tags in use
system.cpu.icache.tags.total_refs              767782                       # Total number of references to valid blocks.
system.cpu.icache.tags.sampled_refs               512                       # Sample count of references to valid blocks.
system.cpu.icache.tags.avg_refs           1499.574219                       # Average number of references to valid blocks.
system.cpu.icache.tags.warmup_cycle                 0                       # Cycle when the warmup percentage was hit.
system.cpu.icache.tags.occ_blocks::.timingCpu.inst     0.100407                       # Average occupied blocks per requestor
system.cpu.icache.tags.occ_percent::.timingCpu.inst     0.000196                       # Average percentage of cache occupancy
system.cpu.icache.tags.occ_percent::total     0.000196                       # Average percentage of cache occupancy
system.cpu.icache.tags.tag_accesses                 8                       # Number of tag accesses
system.cpu.icache.tags.data_accesses                8                       # Number of data accesses
system.cpu.dtb.walker.pwrStateResidencyTicks::UNDEFINED 5169387954450                       # Cumulative time (in ticks) in various power states
system.cpu.interrupts.clk_domain.clock           6960                       # Clock period in ticks
system.cpu.l2cache.pwrStateResidencyTicks::UNDEFINED 5169387954450                       # Cumulative time (in ticks) in various power states
system.cpu.l2cache.blocked_cycles::no_mshrs            0                       # number of cycles access was blocked
system.cpu.l2cache.blocked_cycles::no_targets            0                       # number of cycles access was blocked
system.cpu.l2cache.blocked::no_mshrs                0                       # number of cycles access was blocked
system.cpu.l2cache.blocked::no_targets              0                       # number of cycles access was blocked
system.cpu.l2cache.avg_blocked_cycles::no_mshrs          nan                       # average number of cycles each access was blocked
system.cpu.l2cache.avg_blocked_cycles::no_targets          nan                       # average number of cycles each access was blocked
system.cpu.l2cache.unused_prefetches               38                       # number of HardPF blocks evicted w/o reference
system.cpu.l2cache.replacements                     0                       # number of replacements
system.cpu.l2cache.prefetcher.pwrStateResidencyTicks::UNDEFINED 5169387954450                       # Cumulative time (in ticks) in various power states
system.cpu.l2cache.tags.pwrStateResidencyTicks::UNDEFINED 5169387954450                       # Cumulative time (in ticks) in various power states
system.cpu.l2cache.tags.tagsinuse            0.803256                       # Cycle average of tags in use
system.cpu.l2cache.tags.total_refs             103202                       # Total number of references to valid blocks.
system.cpu.l2cache.tags.sampled_refs             4096                       # Sample count of references to valid blocks.
system.cpu.l2cache.tags.avg_refs            25.195801                       # Average number of references to valid blocks.
system.cpu.l2cache.tags.warmup_cycle                0                       # Cycle when the warmup percentage was hit.
system.cpu.l2cache.tags.occ_blocks::.writebacks     0.042163                       # Average occupied blocks per requestor
system.cpu.l2cache.tags.occ_blocks::.cpu.dcache.prefetcher     0.027847                       # Average occupied blocks per requestor
system.cpu.l2cache.tags.occ_blocks::.cpu.l2cache.prefetcher     0.043928                       # Average occupied blocks per requestor
system.cpu.l2cache.tags.occ_blocks::.timingCpu.dtb.walker     0.006864                       # Average occupied blocks per requestor
system.cpu.l2cache.tags.occ_blocks::.timingCpu.itb.walker     0.003530                       # Average occupied blocks per requestor
system.cpu.l2cache.tags.occ_blocks::.timingCpu.inst     0.410257                       # Average occupied blocks per requestor
system.cpu.l2cache.tags.occ_blocks::.timingCpu.data     0.268667                       # Average occupied blocks per requestor
system.cpu.l2cache.tags.occ_percent::.writebacks     0.000010                       # Average percentage of cache occupancy
system.cpu.l2cache.tags.occ_percent::.cpu.dcache.prefetcher     0.000007                       # Average percentage of cache occupancy
system.cpu.l2cache.tags.occ_percent::.cpu.l2cache.prefetcher     0.000011                       # Average percentage of cache occupancy
system.cpu.l2cache.tags.occ_percent::.timingCpu.dtb.walker     0.000002                       # Average percentage of cache occupancy
system.cpu.l2cache.tags.occ_percent::.timingCpu.itb.walker     0.000001                       # Average percentage of cache occupancy
system.cpu.l2cache.tags.occ_percent::.timingCpu.inst     0.000100                       # Average percentage of cache occupancy
system.cpu.l2cache.tags.occ_percent::.timingCpu.data     0.000066                       # Average percentage of cache occupancy
system.cpu.l2cache.tags.occ_percent::total     0.000196                       # Average percentage of cache occupancy
system.cpu.l2cache.tags.tag_accesses                0                       # Number of tag accesses
system.cpu.l2cache.tags.data_accesses               0                       # Number of data accesses
system.cpu.itb.walker.pwrStateResidencyTicks::UNDEFINED 5169387954450                       # Cumulative time (in ticks) in various power states
system.cpu.mmucache.pwrStateResidencyTicks::UNDEFINED 5169387954450                       # Cumulative time (in ticks) in various power states
system.cpu.mmucache.blocked_cycles::no_mshrs            0                       # number of cycles access was blocked
system.cpu.mmucache.blocked_cycles::no_targets            0                       # number of cycles access was blocked
system.cpu.mmucache.blocked::no_mshrs               0                       # number of cycles access was blocked
system.cpu.mmucache.blocked::no_targets             0                       # number of cycles access was blocked
system.cpu.mmucache.avg_blocked_cycles::no_mshrs          nan                       # average number of cycles each access was blocked
system.cpu.mmucache.avg_blocked_cycles::no_targets          nan                       # average number of cycles each access was blocked
system.cpu.mmucache.replacements                    0                       # number of replacements
system.cpu.mmucache.mmubus.pwrStateResidencyTicks::UNDEFINED 5169387954450                       # Cumulative time (in ticks) in various power states
system.cpu.mmucache.mmubus.snoops                   0                       # Total snoops (count)
system.cpu.mmucache.mmubus.snoopTraffic             0                       # Total snoop traffic (bytes)
system.cpu.mmucache.mmubus.snoop_fanout::samples            0                       # Request fanout histogram
system.cpu.mmucache.mmubus.snoop_fanout::mean          nan                       # Request fanout histogram
system.cpu.mmucache.mmubus.snoop_fanout::stdev          nan                       # Request fanout histogram
system.cpu.mmucache.mmubus.snoop_fanout::underflows            0                       # Request fanout histogram
system.cpu.mmucache.mmubus.snoop_fanout::0            0                       # Request fanout histogram
system.cpu.mmucache.mmubus.snoop_fanout::overflows            0                       # Request fanout histogram
system.cpu.mmucache.mmubus.snoop_fanout::min_value            0                       # Request fanout histogram
system.cpu.mmucache.mmubus.snoop_fanout::max_value            0                       # Request fanout histogram
system.cpu.mmucache.mmubus.snoop_fanout::total            0                       # Request fanout histogram
system.cpu.mmucache.tags.pwrStateResidencyTicks::UNDEFINED 5169387954450                       # Cumulative time (in ticks) in various power states
system.cpu.mmucache.tags.tagsinuse           0.020591                       # Cycle average of tags in use
system.cpu.mmucache.tags.total_refs             12179                       # Total number of references to valid blocks.
system.cpu.mmucache.tags.sampled_refs             105                       # Sample count of references to valid blocks.
system.cpu.mmucache.tags.avg_refs          115.990476                       # Average number of references to valid blocks.
system.cpu.mmucache.tags.warmup_cycle               0                       # Cycle when the warmup percentage was hit.
system.cpu.mmucache.tags.occ_blocks::.timingCpu.dtb.walker     0.015100                       # Average occupied blocks per requestor
system.cpu.mmucache.tags.occ_blocks::.timingCpu.itb.walker     0.005491                       # Average occupied blocks per requestor
system.cpu.mmucache.tags.occ_percent::.timingCpu.dtb.walker     0.000118                       # Average percentage of cache occupancy
system.cpu.mmucache.tags.occ_percent::.timingCpu.itb.walker     0.000043                       # Average percentage of cache occupancy
system.cpu.mmucache.tags.occ_percent::total     0.000161                       # Average percentage of cache occupancy
system.cpu.mmucache.tags.tag_accesses               0                       # Number of tag accesses
system.cpu.mmucache.tags.data_accesses              0                       # Number of data accesses
system.cpu.dcache.pwrStateResidencyTicks::UNDEFINED 5169387954450                       # Cumulative time (in ticks) in various power states
system.cpu.dcache.blocked_cycles::no_mshrs            0                       # number of cycles access was blocked
system.cpu.dcache.blocked_cycles::no_targets            0                       # number of cycles access was blocked
system.cpu.dcache.blocked::no_mshrs                 0                       # number of cycles access was blocked
system.cpu.dcache.blocked::no_targets               0                       # number of cycles access was blocked
system.cpu.dcache.avg_blocked_cycles::no_mshrs          nan                       # average number of cycles each access was blocked
system.cpu.dcache.avg_blocked_cycles::no_targets          nan                       # average number of cycles each access was blocked
system.cpu.dcache.replacements                      0                       # number of replacements
system.cpu.dcache.prefetcher.pwrStateResidencyTicks::UNDEFINED 5169387954450                       # Cumulative time (in ticks) in various power states
system.cpu.dcache.tags.pwrStateResidencyTicks::UNDEFINED 5169387954450                       # Cumulative time (in ticks) in various power states
system.cpu.dcache.tags.tagsinuse             0.100407                       # Cycle average of tags in use
system.cpu.dcache.tags.total_refs              285600                       # Total number of references to valid blocks.
system.cpu.dcache.tags.sampled_refs               512                       # Sample count of references to valid blocks.
system.cpu.dcache.tags.avg_refs            557.812500                       # Average number of references to valid blocks.
system.cpu.dcache.tags.warmup_cycle                 0                       # Cycle when the warmup percentage was hit.
system.cpu.dcache.tags.occ_blocks::.cpu.dcache.prefetcher     0.011766                       # Average occupied blocks per requestor
system.cpu.dcache.tags.occ_blocks::.timingCpu.data     0.088641                       # Average occupied blocks per requestor
system.cpu.dcache.tags.occ_percent::.cpu.dcache.prefetcher     0.000023                       # Average percentage of cache occupancy
system.cpu.dcache.tags.occ_percent::.timingCpu.data     0.000173                       # Average percentage of cache occupancy
system.cpu.dcache.tags.occ_percent::total     0.000196                       # Average percentage of cache occupancy
system.cpu.dcache.tags.tag_accesses                 0                       # Number of tag accesses
system.cpu.dcache.tags.data_accesses                0                       # Number of data accesses
system.cpu.l2bus.pwrStateResidencyTicks::UNDEFINED 5169387954450                       # Cumulative time (in ticks) in various power states
system.cpu.l2bus.trans_dist::ReadReq             1440                       # Transaction distribution
system.cpu.l2bus.trans_dist::ReadResp            1440                       # Transaction distribution
system.cpu.l2bus.trans_dist::WriteReq            5935                       # Transaction distribution
system.cpu.l2bus.trans_dist::WriteResp           5935                       # Transaction distribution
system.cpu.l2bus.pkt_count_system.cpu.dcache.mem_side::system.cpu.l2cache.cpu_side        14750                       # Packet count per connected master and slave (bytes)
system.cpu.l2bus.pkt_count::total               14750                       # Packet count per connected master and slave (bytes)
system.cpu.l2bus.pkt_size_system.cpu.dcache.mem_side::system.cpu.l2cache.cpu_side        23779                       # Cumulative packet size per connected master and slave (bytes)
system.cpu.l2bus.pkt_size::total                23779                       # Cumulative packet size per connected master and slave (bytes)
system.cpu.l2bus.snoops                             0                       # Total snoops (count)
system.cpu.l2bus.snoopTraffic                       0                       # Total snoop traffic (bytes)
system.cpu.l2bus.snoop_fanout::samples              0                       # Request fanout histogram
system.cpu.l2bus.snoop_fanout::mean               nan                       # Request fanout histogram
system.cpu.l2bus.snoop_fanout::stdev              nan                       # Request fanout histogram
system.cpu.l2bus.snoop_fanout::underflows            0                       # Request fanout histogram
system.cpu.l2bus.snoop_fanout::0                    0                       # Request fanout histogram
system.cpu.l2bus.snoop_fanout::1                    0                       # Request fanout histogram
system.cpu.l2bus.snoop_fanout::2                    0                       # Request fanout histogram
system.cpu.l2bus.snoop_fanout::3                    0                       # Request fanout histogram
system.cpu.l2bus.snoop_fanout::overflows            0                       # Request fanout histogram
system.cpu.l2bus.snoop_fanout::min_value            0                       # Request fanout histogram
system.cpu.l2bus.snoop_fanout::max_value            0                       # Request fanout histogram
system.cpu.l2bus.snoop_fanout::total                0                       # Request fanout histogram

---------- End Simulation Statistics   ----------
