
---------- Begin Simulation Statistics ----------
final_tick                               25370938151935                       # Number of ticks from beginning of simulation (restored from checkpoints and never reset)
host_inst_rate                              174127007                       # Simulator instruction rate (inst/s)
host_mem_usage                                4497756                       # Number of bytes of host memory used
host_op_rate                                174125230                       # Simulator op (including micro ops) rate (op/s)
host_seconds                                    21.87                       # Real time elapsed on the host
host_tick_rate                           1159975977883                       # Simulator tick rate (ticks/s)
sim_freq                                 1000000000000                       # Frequency of simulated ticks
sim_insts                                  3808452141                       # Number of instructions simulated
sim_ops                                    3808452141                       # Number of ops (including micro ops) simulated
sim_seconds                                 25.370938                       # Number of seconds simulated
sim_ticks                                25370938151935                       # Number of ticks simulated
system.atomicCpu.committedInsts                     0                       # Number of instructions committed
system.atomicCpu.committedOps                       0                       # Number of ops (including micro ops) committed
system.atomicCpu.dtb.rdAccesses                     0                       # TLB accesses on read requests
system.atomicCpu.dtb.rdMisses                       0                       # TLB misses on read requests
system.atomicCpu.dtb.wrAccesses                     0                       # TLB accesses on write requests
system.atomicCpu.dtb.wrMisses                       0                       # TLB misses on write requests
system.atomicCpu.idle_fraction                      1                       # Percentage of idle cycles
system.atomicCpu.itb.rdAccesses                     0                       # TLB accesses on read requests
system.atomicCpu.itb.rdMisses                       0                       # TLB misses on read requests
system.atomicCpu.itb.wrAccesses                     0                       # TLB accesses on write requests
system.atomicCpu.itb.wrMisses                       0                       # TLB misses on write requests
system.atomicCpu.kern.inst.arm                      0                       # number of arm instructions executed
system.atomicCpu.kern.inst.quiesce                  0                       # number of quiesce instructions executed
system.atomicCpu.not_idle_fraction                  0                       # Percentage of non-idle cycles
system.atomicCpu.numCycles                          0                       # number of cpu cycles simulated
system.atomicCpu.numWorkItemsCompleted              0                       # number of work items this cpu completed
system.atomicCpu.numWorkItemsStarted                0                       # number of work items this cpu started
system.atomicCpu.num_busy_cycles                    0                       # Number of busy cycles
system.atomicCpu.num_conditional_control_insts            0                       # number of instructions that are conditional controls
system.atomicCpu.num_fp_alu_accesses                0                       # Number of float alu accesses
system.atomicCpu.num_fp_insts                       0                       # number of float instructions
system.atomicCpu.num_fp_register_reads              0                       # number of times the floating registers were read
system.atomicCpu.num_fp_register_writes             0                       # number of times the floating registers were written
system.atomicCpu.num_func_calls                     0                       # number of times a function call or return occured
system.atomicCpu.num_idle_cycles                    0                       # Number of idle cycles
system.atomicCpu.num_int_alu_accesses               0                       # Number of integer alu accesses
system.atomicCpu.num_int_insts                      0                       # number of integer instructions
system.atomicCpu.num_int_register_reads             0                       # number of times the integer registers were read
system.atomicCpu.num_int_register_writes            0                       # number of times the integer registers were written
system.atomicCpu.num_load_insts                     0                       # Number of load instructions
system.atomicCpu.num_mem_refs                       0                       # number of memory refs
system.atomicCpu.num_store_insts                    0                       # Number of store instructions
system.atomicCpu.num_vec_alu_accesses               0                       # Number of vector alu accesses
system.atomicCpu.num_vec_insts                      0                       # number of vector instructions
system.atomicCpu.num_vec_register_reads             0                       # number of times the vector registers were read
system.atomicCpu.num_vec_register_writes            0                       # number of times the vector registers were written
system.atomicCpu.op_class::No_OpClass               0                       # Class of executed instruction
system.atomicCpu.op_class::IntAlu                   0                       # Class of executed instruction
system.atomicCpu.op_class::IntMult                  0                       # Class of executed instruction
system.atomicCpu.op_class::IntDiv                   0                       # Class of executed instruction
system.atomicCpu.op_class::FloatAdd                 0                       # Class of executed instruction
system.atomicCpu.op_class::FloatCmp                 0                       # Class of executed instruction
system.atomicCpu.op_class::FloatCvt                 0                       # Class of executed instruction
system.atomicCpu.op_class::FloatMult                0                       # Class of executed instruction
system.atomicCpu.op_class::FloatMultAcc             0                       # Class of executed instruction
system.atomicCpu.op_class::FloatDiv                 0                       # Class of executed instruction
system.atomicCpu.op_class::FloatMisc                0                       # Class of executed instruction
system.atomicCpu.op_class::FloatSqrt                0                       # Class of executed instruction
system.atomicCpu.op_class::SimdAdd                  0                       # Class of executed instruction
system.atomicCpu.op_class::SimdAddAcc               0                       # Class of executed instruction
system.atomicCpu.op_class::SimdAlu                  0                       # Class of executed instruction
system.atomicCpu.op_class::SimdCmp                  0                       # Class of executed instruction
system.atomicCpu.op_class::SimdCvt                  0                       # Class of executed instruction
system.atomicCpu.op_class::SimdMisc                 0                       # Class of executed instruction
system.atomicCpu.op_class::SimdMult                 0                       # Class of executed instruction
system.atomicCpu.op_class::SimdMultAcc              0                       # Class of executed instruction
system.atomicCpu.op_class::SimdShift                0                       # Class of executed instruction
system.atomicCpu.op_class::SimdShiftAcc             0                       # Class of executed instruction
system.atomicCpu.op_class::SimdDiv                  0                       # Class of executed instruction
system.atomicCpu.op_class::SimdSqrt                 0                       # Class of executed instruction
system.atomicCpu.op_class::SimdFloatAdd             0                       # Class of executed instruction
system.atomicCpu.op_class::SimdFloatAlu             0                       # Class of executed instruction
system.atomicCpu.op_class::SimdFloatCmp             0                       # Class of executed instruction
system.atomicCpu.op_class::SimdFloatCvt             0                       # Class of executed instruction
system.atomicCpu.op_class::SimdFloatDiv             0                       # Class of executed instruction
system.atomicCpu.op_class::SimdFloatMisc            0                       # Class of executed instruction
system.atomicCpu.op_class::SimdFloatMult            0                       # Class of executed instruction
system.atomicCpu.op_class::SimdFloatMultAcc            0                       # Class of executed instruction
system.atomicCpu.op_class::SimdFloatSqrt            0                       # Class of executed instruction
system.atomicCpu.op_class::SimdReduceAdd            0                       # Class of executed instruction
system.atomicCpu.op_class::SimdReduceAlu            0                       # Class of executed instruction
system.atomicCpu.op_class::SimdReduceCmp            0                       # Class of executed instruction
system.atomicCpu.op_class::SimdFloatReduceAdd            0                       # Class of executed instruction
system.atomicCpu.op_class::SimdFloatReduceCmp            0                       # Class of executed instruction
system.atomicCpu.op_class::SimdAes                  0                       # Class of executed instruction
system.atomicCpu.op_class::SimdAesMix               0                       # Class of executed instruction
system.atomicCpu.op_class::SimdSha1Hash             0                       # Class of executed instruction
system.atomicCpu.op_class::SimdSha1Hash2            0                       # Class of executed instruction
system.atomicCpu.op_class::SimdSha256Hash            0                       # Class of executed instruction
system.atomicCpu.op_class::SimdSha256Hash2            0                       # Class of executed instruction
system.atomicCpu.op_class::SimdShaSigma2            0                       # Class of executed instruction
system.atomicCpu.op_class::SimdShaSigma3            0                       # Class of executed instruction
system.atomicCpu.op_class::SimdPredAlu              0                       # Class of executed instruction
system.atomicCpu.op_class::MemRead                  0                       # Class of executed instruction
system.atomicCpu.op_class::MemWrite                 0                       # Class of executed instruction
system.atomicCpu.op_class::FloatMemRead             0                       # Class of executed instruction
system.atomicCpu.op_class::FloatMemWrite            0                       # Class of executed instruction
system.atomicCpu.op_class::IprAccess                0                       # Class of executed instruction
system.atomicCpu.op_class::InstPrefetch             0                       # Class of executed instruction
system.atomicCpu.op_class::total                    0                       # Class of executed instruction
system.cpu.committedInsts                  3808452141                       # Number of instructions committed
system.cpu.dcache.prefetcher.num_hwpf_issued            0                       # number of hwpf issued
system.cpu.dcache.prefetcher.pfBufferHit            0                       # number of redundant prefetches already in prefetch queue
system.cpu.dcache.prefetcher.pfIdentified            0                       # number of prefetch candidates identified
system.cpu.dcache.prefetcher.pfInCache              0                       # number of redundant prefetches already in cache/mshr dropped
system.cpu.dcache.prefetcher.pfRemovedFull            0                       # number of prefetches dropped due to prefetch queue size
system.cpu.dcache.prefetcher.pfSpanPage             0                       # number of prefetches that crossed the page
system.cpu.dtb.rdAccesses                           0                       # TLB accesses on read requests
system.cpu.dtb.rdMisses                             0                       # TLB misses on read requests
system.cpu.dtb.wrAccesses                           0                       # TLB accesses on write requests
system.cpu.dtb.wrMisses                             0                       # TLB misses on write requests
system.cpu.icache.prefetcher.num_hwpf_issued            0                       # number of hwpf issued
system.cpu.icache.prefetcher.pfBufferHit            0                       # number of redundant prefetches already in prefetch queue
system.cpu.icache.prefetcher.pfIdentified            0                       # number of prefetch candidates identified
system.cpu.icache.prefetcher.pfInCache              0                       # number of redundant prefetches already in cache/mshr dropped
system.cpu.icache.prefetcher.pfRemovedFull            0                       # number of prefetches dropped due to prefetch queue size
system.cpu.icache.prefetcher.pfSpanPage             0                       # number of prefetches that crossed the page
system.cpu.itb.rdAccesses                           0                       # TLB accesses on read requests
system.cpu.itb.rdMisses                             0                       # TLB misses on read requests
system.cpu.itb.wrAccesses                           0                       # TLB accesses on write requests
system.cpu.itb.wrMisses                             0                       # TLB misses on write requests
system.cpu.kern.inst.arm                            0                       # number of arm instructions executed
system.cpu.kern.inst.quiesce                        0                       # number of quiesce instructions executed
system.cpu.l2bus.snoop_filter.hit_multi_requests            0                       # Number of requests hitting in the snoop filter with multiple (>1) holders of the requested data.
system.cpu.l2bus.snoop_filter.hit_multi_snoops            0                       # Number of snoops hitting in the snoop filter with multiple (>1) holders of the requested data.
system.cpu.l2bus.snoop_filter.hit_single_requests            0                       # Number of requests hitting in the snoop filter with a single holder of the requested data.
system.cpu.l2bus.snoop_filter.hit_single_snoops            0                       # Number of snoops hitting in the snoop filter with a single holder of the requested data.
system.cpu.l2bus.snoop_filter.tot_requests            0                       # Total number of requests made to the snoop filter.
system.cpu.l2bus.snoop_filter.tot_snoops            0                       # Total number of snoops made to the snoop filter.
system.cpu.l2cache.prefetcher.num_hwpf_issued            0                       # number of hwpf issued
system.cpu.l2cache.prefetcher.pfBufferHit            0                       # number of redundant prefetches already in prefetch queue
system.cpu.l2cache.prefetcher.pfIdentified            0                       # number of prefetch candidates identified
system.cpu.l2cache.prefetcher.pfInCache             0                       # number of redundant prefetches already in cache/mshr dropped
system.cpu.l2cache.prefetcher.pfRemovedFull            0                       # number of prefetches dropped due to prefetch queue size
system.cpu.l2cache.prefetcher.pfSpanPage            0                       # number of prefetches that crossed the page
system.cpu.mmucache.mmubus.snoop_filter.hit_multi_requests            0                       # Number of requests hitting in the snoop filter with multiple (>1) holders of the requested data.
system.cpu.mmucache.mmubus.snoop_filter.hit_multi_snoops            0                       # Number of snoops hitting in the snoop filter with multiple (>1) holders of the requested data.
system.cpu.mmucache.mmubus.snoop_filter.hit_single_requests            0                       # Number of requests hitting in the snoop filter with a single holder of the requested data.
system.cpu.mmucache.mmubus.snoop_filter.hit_single_snoops            0                       # Number of snoops hitting in the snoop filter with a single holder of the requested data.
system.cpu.mmucache.mmubus.snoop_filter.tot_requests            0                       # Total number of requests made to the snoop filter.
system.cpu.mmucache.mmubus.snoop_filter.tot_snoops            0                       # Total number of snoops made to the snoop filter.
system.cpu.numCoalescedMMIO                         0                       # number of coalesced memory mapped IO requests
system.cpu.numCycles                      52980739779                       # number of cpu cycles simulated
system.cpu.numExitSignal                        43442                       # exits due to signal delivery
system.cpu.numHalt                              10590                       # number of VM exits due to wait for interrupt instructions
system.cpu.numHypercalls                            0                       # number of hypercalls
system.cpu.numIO                               153449                       # number of VM exits due to legacy IO
system.cpu.numInterrupts                        32009                       # number of interrupts delivered
system.cpu.numMMIO                              32693                       # number of VM exits due to memory mapped IO
system.cpu.numVMExits                          253227                       # total number of KVM exits
system.cpu.numVMHalfEntries                         0                       # number of KVM entries to finalize pending operations
system.cpu.numWorkItemsCompleted                    0                       # number of work items this cpu completed
system.cpu.numWorkItemsStarted                      0                       # number of work items this cpu started
system.l3bus.snoop_filter.hit_multi_requests            0                       # Number of requests hitting in the snoop filter with multiple (>1) holders of the requested data.
system.l3bus.snoop_filter.hit_multi_snoops            0                       # Number of snoops hitting in the snoop filter with multiple (>1) holders of the requested data.
system.l3bus.snoop_filter.hit_single_requests            0                       # Number of requests hitting in the snoop filter with a single holder of the requested data.
system.l3bus.snoop_filter.hit_single_snoops            0                       # Number of snoops hitting in the snoop filter with a single holder of the requested data.
system.l3bus.snoop_filter.tot_requests              0                       # Total number of requests made to the snoop filter.
system.l3bus.snoop_filter.tot_snoops                0                       # Total number of snoops made to the snoop filter.
system.membus.snoop_filter.hit_multi_requests            0                       # Number of requests hitting in the snoop filter with multiple (>1) holders of the requested data.
system.membus.snoop_filter.hit_multi_snoops            0                       # Number of snoops hitting in the snoop filter with multiple (>1) holders of the requested data.
system.membus.snoop_filter.hit_single_requests            0                       # Number of requests hitting in the snoop filter with a single holder of the requested data.
system.membus.snoop_filter.hit_single_snoops            0                       # Number of snoops hitting in the snoop filter with a single holder of the requested data.
system.membus.snoop_filter.tot_requests             0                       # Total number of requests made to the snoop filter.
system.membus.snoop_filter.tot_snoops               0                       # Total number of snoops made to the snoop filter.
system.pc.south_bridge.ide.disks0.dma_read_bytes     13553664                       # Number of bytes transfered via DMA reads (not PRD).
system.pc.south_bridge.ide.disks0.dma_read_full_pages         3309                       # Number of full page size DMA reads (not PRD).
system.pc.south_bridge.ide.disks0.dma_read_txs         3309                       # Number of DMA read transactions (not PRD).
system.pc.south_bridge.ide.disks0.dma_write_bytes     69789696                       # Number of bytes transfered via DMA writes.
system.pc.south_bridge.ide.disks0.dma_write_full_pages        17038                       # Number of full page size DMA writes.
system.pc.south_bridge.ide.disks0.dma_write_txs        17040                       # Number of DMA write transactions.
system.pc.south_bridge.ide.disks1.dma_read_bytes            0                       # Number of bytes transfered via DMA reads (not PRD).
system.pc.south_bridge.ide.disks1.dma_read_full_pages            0                       # Number of full page size DMA reads (not PRD).
system.pc.south_bridge.ide.disks1.dma_read_txs            0                       # Number of DMA read transactions (not PRD).
system.pc.south_bridge.ide.disks1.dma_write_bytes      1064960                       # Number of bytes transfered via DMA writes.
system.pc.south_bridge.ide.disks1.dma_write_full_pages          260                       # Number of full page size DMA writes.
system.pc.south_bridge.ide.disks1.dma_write_txs          260                       # Number of DMA write transactions.
system.timingCpu.committedInsts                     0                       # Number of instructions committed
system.timingCpu.committedOps                       0                       # Number of ops (including micro ops) committed
system.timingCpu.dtb.rdAccesses                     0                       # TLB accesses on read requests
system.timingCpu.dtb.rdMisses                       0                       # TLB misses on read requests
system.timingCpu.dtb.wrAccesses                     0                       # TLB accesses on write requests
system.timingCpu.dtb.wrMisses                       0                       # TLB misses on write requests
system.timingCpu.idle_fraction                      1                       # Percentage of idle cycles
system.timingCpu.itb.rdAccesses                     0                       # TLB accesses on read requests
system.timingCpu.itb.rdMisses                       0                       # TLB misses on read requests
system.timingCpu.itb.wrAccesses                     0                       # TLB accesses on write requests
system.timingCpu.itb.wrMisses                       0                       # TLB misses on write requests
system.timingCpu.kern.inst.arm                      0                       # number of arm instructions executed
system.timingCpu.kern.inst.quiesce                  0                       # number of quiesce instructions executed
system.timingCpu.not_idle_fraction                  0                       # Percentage of non-idle cycles
system.timingCpu.numCycles                          0                       # number of cpu cycles simulated
system.timingCpu.numWorkItemsCompleted              0                       # number of work items this cpu completed
system.timingCpu.numWorkItemsStarted                0                       # number of work items this cpu started
system.timingCpu.num_busy_cycles                    0                       # Number of busy cycles
system.timingCpu.num_conditional_control_insts            0                       # number of instructions that are conditional controls
system.timingCpu.num_fp_alu_accesses                0                       # Number of float alu accesses
system.timingCpu.num_fp_insts                       0                       # number of float instructions
system.timingCpu.num_fp_register_reads              0                       # number of times the floating registers were read
system.timingCpu.num_fp_register_writes             0                       # number of times the floating registers were written
system.timingCpu.num_func_calls                     0                       # number of times a function call or return occured
system.timingCpu.num_idle_cycles                    0                       # Number of idle cycles
system.timingCpu.num_int_alu_accesses               0                       # Number of integer alu accesses
system.timingCpu.num_int_insts                      0                       # number of integer instructions
system.timingCpu.num_int_register_reads             0                       # number of times the integer registers were read
system.timingCpu.num_int_register_writes            0                       # number of times the integer registers were written
system.timingCpu.num_load_insts                     0                       # Number of load instructions
system.timingCpu.num_mem_refs                       0                       # number of memory refs
system.timingCpu.num_store_insts                    0                       # Number of store instructions
system.timingCpu.num_vec_alu_accesses               0                       # Number of vector alu accesses
system.timingCpu.num_vec_insts                      0                       # number of vector instructions
system.timingCpu.num_vec_register_reads             0                       # number of times the vector registers were read
system.timingCpu.num_vec_register_writes            0                       # number of times the vector registers were written
system.timingCpu.op_class::No_OpClass               0                       # Class of executed instruction
system.timingCpu.op_class::IntAlu                   0                       # Class of executed instruction
system.timingCpu.op_class::IntMult                  0                       # Class of executed instruction
system.timingCpu.op_class::IntDiv                   0                       # Class of executed instruction
system.timingCpu.op_class::FloatAdd                 0                       # Class of executed instruction
system.timingCpu.op_class::FloatCmp                 0                       # Class of executed instruction
system.timingCpu.op_class::FloatCvt                 0                       # Class of executed instruction
system.timingCpu.op_class::FloatMult                0                       # Class of executed instruction
system.timingCpu.op_class::FloatMultAcc             0                       # Class of executed instruction
system.timingCpu.op_class::FloatDiv                 0                       # Class of executed instruction
system.timingCpu.op_class::FloatMisc                0                       # Class of executed instruction
system.timingCpu.op_class::FloatSqrt                0                       # Class of executed instruction
system.timingCpu.op_class::SimdAdd                  0                       # Class of executed instruction
system.timingCpu.op_class::SimdAddAcc               0                       # Class of executed instruction
system.timingCpu.op_class::SimdAlu                  0                       # Class of executed instruction
system.timingCpu.op_class::SimdCmp                  0                       # Class of executed instruction
system.timingCpu.op_class::SimdCvt                  0                       # Class of executed instruction
system.timingCpu.op_class::SimdMisc                 0                       # Class of executed instruction
system.timingCpu.op_class::SimdMult                 0                       # Class of executed instruction
system.timingCpu.op_class::SimdMultAcc              0                       # Class of executed instruction
system.timingCpu.op_class::SimdShift                0                       # Class of executed instruction
system.timingCpu.op_class::SimdShiftAcc             0                       # Class of executed instruction
system.timingCpu.op_class::SimdDiv                  0                       # Class of executed instruction
system.timingCpu.op_class::SimdSqrt                 0                       # Class of executed instruction
system.timingCpu.op_class::SimdFloatAdd             0                       # Class of executed instruction
system.timingCpu.op_class::SimdFloatAlu             0                       # Class of executed instruction
system.timingCpu.op_class::SimdFloatCmp             0                       # Class of executed instruction
system.timingCpu.op_class::SimdFloatCvt             0                       # Class of executed instruction
system.timingCpu.op_class::SimdFloatDiv             0                       # Class of executed instruction
system.timingCpu.op_class::SimdFloatMisc            0                       # Class of executed instruction
system.timingCpu.op_class::SimdFloatMult            0                       # Class of executed instruction
system.timingCpu.op_class::SimdFloatMultAcc            0                       # Class of executed instruction
system.timingCpu.op_class::SimdFloatSqrt            0                       # Class of executed instruction
system.timingCpu.op_class::SimdReduceAdd            0                       # Class of executed instruction
system.timingCpu.op_class::SimdReduceAlu            0                       # Class of executed instruction
system.timingCpu.op_class::SimdReduceCmp            0                       # Class of executed instruction
system.timingCpu.op_class::SimdFloatReduceAdd            0                       # Class of executed instruction
system.timingCpu.op_class::SimdFloatReduceCmp            0                       # Class of executed instruction
system.timingCpu.op_class::SimdAes                  0                       # Class of executed instruction
system.timingCpu.op_class::SimdAesMix               0                       # Class of executed instruction
system.timingCpu.op_class::SimdSha1Hash             0                       # Class of executed instruction
system.timingCpu.op_class::SimdSha1Hash2            0                       # Class of executed instruction
system.timingCpu.op_class::SimdSha256Hash            0                       # Class of executed instruction
system.timingCpu.op_class::SimdSha256Hash2            0                       # Class of executed instruction
system.timingCpu.op_class::SimdShaSigma2            0                       # Class of executed instruction
system.timingCpu.op_class::SimdShaSigma3            0                       # Class of executed instruction
system.timingCpu.op_class::SimdPredAlu              0                       # Class of executed instruction
system.timingCpu.op_class::MemRead                  0                       # Class of executed instruction
system.timingCpu.op_class::MemWrite                 0                       # Class of executed instruction
system.timingCpu.op_class::FloatMemRead             0                       # Class of executed instruction
system.timingCpu.op_class::FloatMemWrite            0                       # Class of executed instruction
system.timingCpu.op_class::IprAccess                0                       # Class of executed instruction
system.timingCpu.op_class::InstPrefetch             0                       # Class of executed instruction
system.timingCpu.op_class::total                    0                       # Class of executed instruction
system.bridge.pwrStateResidencyTicks::UNDEFINED 25370938151935                       # Cumulative time (in ticks) in various power states
system.mem_cntrls8.pwrStateResidencyTicks::UNDEFINED 25370938151935                       # Cumulative time (in ticks) in various power states
system.mem_cntrls8.bytes_read::.pc.south_bridge.ide     13624112                       # Number of bytes read from this memory
system.mem_cntrls8.bytes_read::total         13624112                       # Number of bytes read from this memory
system.mem_cntrls8.bytes_written::.pc.south_bridge.ide     70854656                       # Number of bytes written to this memory
system.mem_cntrls8.bytes_written::total      70854656                       # Number of bytes written to this memory
system.mem_cntrls8.num_reads::.pc.south_bridge.ide       220582                       # Number of read requests responded to by this memory
system.mem_cntrls8.num_reads::total            220582                       # Number of read requests responded to by this memory
system.mem_cntrls8.num_writes::.pc.south_bridge.ide      1107104                       # Number of write requests responded to by this memory
system.mem_cntrls8.num_writes::total          1107104                       # Number of write requests responded to by this memory
system.mem_cntrls8.bw_read::.pc.south_bridge.ide       536997                       # Total read bandwidth from this memory (bytes/s)
system.mem_cntrls8.bw_read::total              536997                       # Total read bandwidth from this memory (bytes/s)
system.mem_cntrls8.bw_write::.pc.south_bridge.ide      2792749                       # Write bandwidth from this memory (bytes/s)
system.mem_cntrls8.bw_write::total            2792749                       # Write bandwidth from this memory (bytes/s)
system.mem_cntrls8.bw_total::.pc.south_bridge.ide      3329746                       # Total bandwidth to/from this memory (bytes/s)
system.mem_cntrls8.bw_total::total            3329746                       # Total bandwidth to/from this memory (bytes/s)
system.mem_cntrls8.priorityMinLatency    0.000000000000                       # per QoS priority minimum request to response latency (s)
system.mem_cntrls8.priorityMaxLatency    0.000000000000                       # per QoS priority maximum request to response latency (s)
system.mem_cntrls8.numReadWriteTurnArounds            0                       # Number of turnarounds from READ to WRITE
system.mem_cntrls8.numWriteReadTurnArounds            0                       # Number of turnarounds from WRITE to READ
system.mem_cntrls8.numStayReadState                 0                       # Number of times bus staying in READ state
system.mem_cntrls8.numStayWriteState                0                       # Number of times bus staying in WRITE state
system.mem_cntrls8.readReqs                         0                       # Number of read requests accepted
system.mem_cntrls8.writeReqs                        0                       # Number of write requests accepted
system.mem_cntrls8.readBursts                       0                       # Number of DRAM read bursts, including those serviced by the write queue
system.mem_cntrls8.writeBursts                      0                       # Number of DRAM write bursts, including those merged in the write queue
system.mem_cntrls8.servicedByWrQ                    0                       # Number of DRAM read bursts serviced by the write queue
system.mem_cntrls8.mergedWrBursts                   0                       # Number of DRAM write bursts merged with an existing one
system.mem_cntrls8.neitherReadNorWriteReqs            0                       # Number of requests that are neither read nor write
system.mem_cntrls8.perBankRdBursts::0               0                       # Per bank write bursts
system.mem_cntrls8.perBankRdBursts::1               0                       # Per bank write bursts
system.mem_cntrls8.perBankRdBursts::2               0                       # Per bank write bursts
system.mem_cntrls8.perBankRdBursts::3               0                       # Per bank write bursts
system.mem_cntrls8.perBankRdBursts::4               0                       # Per bank write bursts
system.mem_cntrls8.perBankRdBursts::5               0                       # Per bank write bursts
system.mem_cntrls8.perBankRdBursts::6               0                       # Per bank write bursts
system.mem_cntrls8.perBankRdBursts::7               0                       # Per bank write bursts
system.mem_cntrls8.perBankRdBursts::8               0                       # Per bank write bursts
system.mem_cntrls8.perBankRdBursts::9               0                       # Per bank write bursts
system.mem_cntrls8.perBankRdBursts::10              0                       # Per bank write bursts
system.mem_cntrls8.perBankRdBursts::11              0                       # Per bank write bursts
system.mem_cntrls8.perBankRdBursts::12              0                       # Per bank write bursts
system.mem_cntrls8.perBankRdBursts::13              0                       # Per bank write bursts
system.mem_cntrls8.perBankRdBursts::14              0                       # Per bank write bursts
system.mem_cntrls8.perBankRdBursts::15              0                       # Per bank write bursts
system.mem_cntrls8.perBankRdBursts::16              0                       # Per bank write bursts
system.mem_cntrls8.perBankRdBursts::17              0                       # Per bank write bursts
system.mem_cntrls8.perBankRdBursts::18              0                       # Per bank write bursts
system.mem_cntrls8.perBankRdBursts::19              0                       # Per bank write bursts
system.mem_cntrls8.perBankRdBursts::20              0                       # Per bank write bursts
system.mem_cntrls8.perBankRdBursts::21              0                       # Per bank write bursts
system.mem_cntrls8.perBankRdBursts::22              0                       # Per bank write bursts
system.mem_cntrls8.perBankRdBursts::23              0                       # Per bank write bursts
system.mem_cntrls8.perBankRdBursts::24              0                       # Per bank write bursts
system.mem_cntrls8.perBankRdBursts::25              0                       # Per bank write bursts
system.mem_cntrls8.perBankRdBursts::26              0                       # Per bank write bursts
system.mem_cntrls8.perBankRdBursts::27              0                       # Per bank write bursts
system.mem_cntrls8.perBankRdBursts::28              0                       # Per bank write bursts
system.mem_cntrls8.perBankRdBursts::29              0                       # Per bank write bursts
system.mem_cntrls8.perBankRdBursts::30              0                       # Per bank write bursts
system.mem_cntrls8.perBankRdBursts::31              0                       # Per bank write bursts
system.mem_cntrls8.perBankWrBursts::0               0                       # Per bank write bursts
system.mem_cntrls8.perBankWrBursts::1               0                       # Per bank write bursts
system.mem_cntrls8.perBankWrBursts::2               0                       # Per bank write bursts
system.mem_cntrls8.perBankWrBursts::3               0                       # Per bank write bursts
system.mem_cntrls8.perBankWrBursts::4               0                       # Per bank write bursts
system.mem_cntrls8.perBankWrBursts::5               0                       # Per bank write bursts
system.mem_cntrls8.perBankWrBursts::6               0                       # Per bank write bursts
system.mem_cntrls8.perBankWrBursts::7               0                       # Per bank write bursts
system.mem_cntrls8.perBankWrBursts::8               0                       # Per bank write bursts
system.mem_cntrls8.perBankWrBursts::9               0                       # Per bank write bursts
system.mem_cntrls8.perBankWrBursts::10              0                       # Per bank write bursts
system.mem_cntrls8.perBankWrBursts::11              0                       # Per bank write bursts
system.mem_cntrls8.perBankWrBursts::12              0                       # Per bank write bursts
system.mem_cntrls8.perBankWrBursts::13              0                       # Per bank write bursts
system.mem_cntrls8.perBankWrBursts::14              0                       # Per bank write bursts
system.mem_cntrls8.perBankWrBursts::15              0                       # Per bank write bursts
system.mem_cntrls8.perBankWrBursts::16              0                       # Per bank write bursts
system.mem_cntrls8.perBankWrBursts::17              0                       # Per bank write bursts
system.mem_cntrls8.perBankWrBursts::18              0                       # Per bank write bursts
system.mem_cntrls8.perBankWrBursts::19              0                       # Per bank write bursts
system.mem_cntrls8.perBankWrBursts::20              0                       # Per bank write bursts
system.mem_cntrls8.perBankWrBursts::21              0                       # Per bank write bursts
system.mem_cntrls8.perBankWrBursts::22              0                       # Per bank write bursts
system.mem_cntrls8.perBankWrBursts::23              0                       # Per bank write bursts
system.mem_cntrls8.perBankWrBursts::24              0                       # Per bank write bursts
system.mem_cntrls8.perBankWrBursts::25              0                       # Per bank write bursts
system.mem_cntrls8.perBankWrBursts::26              0                       # Per bank write bursts
system.mem_cntrls8.perBankWrBursts::27              0                       # Per bank write bursts
system.mem_cntrls8.perBankWrBursts::28              0                       # Per bank write bursts
system.mem_cntrls8.perBankWrBursts::29              0                       # Per bank write bursts
system.mem_cntrls8.perBankWrBursts::30              0                       # Per bank write bursts
system.mem_cntrls8.perBankWrBursts::31              0                       # Per bank write bursts
system.mem_cntrls8.avgRdQLen                     0.00                       # Average read queue length when enqueuing
system.mem_cntrls8.avgWrQLen                     0.00                       # Average write queue length when enqueuing
system.mem_cntrls8.totQLat                          0                       # Total ticks spent queuing
system.mem_cntrls8.totBusLat                        0                       # Total ticks spent in databus transfers
system.mem_cntrls8.totMemAccLat                     0                       # Total ticks spent from burst creation until serviced by the DRAM
system.mem_cntrls8.avgQLat                        nan                       # Average queueing delay per DRAM burst
system.mem_cntrls8.avgBusLat                      nan                       # Average bus latency per DRAM burst
system.mem_cntrls8.avgMemAccLat                   nan                       # Average memory access latency per DRAM burst
system.mem_cntrls8.numRdRetry                       0                       # Number of times read queue was full causing retry
system.mem_cntrls8.numWrRetry                       0                       # Number of times write queue was full causing retry
system.mem_cntrls8.readRowHits                      0                       # Number of row buffer hits during reads
system.mem_cntrls8.writeRowHits                     0                       # Number of row buffer hits during writes
system.mem_cntrls8.readRowHitRate                 nan                       # Row buffer hit rate for reads
system.mem_cntrls8.writeRowHitRate                nan                       # Row buffer hit rate for writes
system.mem_cntrls8.readPktSize::0                   0                       # Read request sizes (log2)
system.mem_cntrls8.readPktSize::1                   0                       # Read request sizes (log2)
system.mem_cntrls8.readPktSize::2                   0                       # Read request sizes (log2)
system.mem_cntrls8.readPktSize::3                   0                       # Read request sizes (log2)
system.mem_cntrls8.readPktSize::4                   0                       # Read request sizes (log2)
system.mem_cntrls8.readPktSize::5                   0                       # Read request sizes (log2)
system.mem_cntrls8.readPktSize::6                   0                       # Read request sizes (log2)
system.mem_cntrls8.writePktSize::0                  0                       # Write request sizes (log2)
system.mem_cntrls8.writePktSize::1                  0                       # Write request sizes (log2)
system.mem_cntrls8.writePktSize::2                  0                       # Write request sizes (log2)
system.mem_cntrls8.writePktSize::3                  0                       # Write request sizes (log2)
system.mem_cntrls8.writePktSize::4                  0                       # Write request sizes (log2)
system.mem_cntrls8.writePktSize::5                  0                       # Write request sizes (log2)
system.mem_cntrls8.writePktSize::6                  0                       # Write request sizes (log2)
system.mem_cntrls8.rdQLenPdf::0                     0                       # What read queue length does an incoming req see
system.mem_cntrls8.rdQLenPdf::1                     0                       # What read queue length does an incoming req see
system.mem_cntrls8.rdQLenPdf::2                     0                       # What read queue length does an incoming req see
system.mem_cntrls8.rdQLenPdf::3                     0                       # What read queue length does an incoming req see
system.mem_cntrls8.rdQLenPdf::4                     0                       # What read queue length does an incoming req see
system.mem_cntrls8.rdQLenPdf::5                     0                       # What read queue length does an incoming req see
system.mem_cntrls8.rdQLenPdf::6                     0                       # What read queue length does an incoming req see
system.mem_cntrls8.rdQLenPdf::7                     0                       # What read queue length does an incoming req see
system.mem_cntrls8.rdQLenPdf::8                     0                       # What read queue length does an incoming req see
system.mem_cntrls8.rdQLenPdf::9                     0                       # What read queue length does an incoming req see
system.mem_cntrls8.rdQLenPdf::10                    0                       # What read queue length does an incoming req see
system.mem_cntrls8.rdQLenPdf::11                    0                       # What read queue length does an incoming req see
system.mem_cntrls8.rdQLenPdf::12                    0                       # What read queue length does an incoming req see
system.mem_cntrls8.rdQLenPdf::13                    0                       # What read queue length does an incoming req see
system.mem_cntrls8.rdQLenPdf::14                    0                       # What read queue length does an incoming req see
system.mem_cntrls8.rdQLenPdf::15                    0                       # What read queue length does an incoming req see
system.mem_cntrls8.rdQLenPdf::16                    0                       # What read queue length does an incoming req see
system.mem_cntrls8.rdQLenPdf::17                    0                       # What read queue length does an incoming req see
system.mem_cntrls8.rdQLenPdf::18                    0                       # What read queue length does an incoming req see
system.mem_cntrls8.rdQLenPdf::19                    0                       # What read queue length does an incoming req see
system.mem_cntrls8.rdQLenPdf::20                    0                       # What read queue length does an incoming req see
system.mem_cntrls8.rdQLenPdf::21                    0                       # What read queue length does an incoming req see
system.mem_cntrls8.rdQLenPdf::22                    0                       # What read queue length does an incoming req see
system.mem_cntrls8.rdQLenPdf::23                    0                       # What read queue length does an incoming req see
system.mem_cntrls8.rdQLenPdf::24                    0                       # What read queue length does an incoming req see
system.mem_cntrls8.rdQLenPdf::25                    0                       # What read queue length does an incoming req see
system.mem_cntrls8.rdQLenPdf::26                    0                       # What read queue length does an incoming req see
system.mem_cntrls8.rdQLenPdf::27                    0                       # What read queue length does an incoming req see
system.mem_cntrls8.rdQLenPdf::28                    0                       # What read queue length does an incoming req see
system.mem_cntrls8.rdQLenPdf::29                    0                       # What read queue length does an incoming req see
system.mem_cntrls8.rdQLenPdf::30                    0                       # What read queue length does an incoming req see
system.mem_cntrls8.rdQLenPdf::31                    0                       # What read queue length does an incoming req see
system.mem_cntrls8.rdQLenPdf::32                    0                       # What read queue length does an incoming req see
system.mem_cntrls8.rdQLenPdf::33                    0                       # What read queue length does an incoming req see
system.mem_cntrls8.rdQLenPdf::34                    0                       # What read queue length does an incoming req see
system.mem_cntrls8.rdQLenPdf::35                    0                       # What read queue length does an incoming req see
system.mem_cntrls8.rdQLenPdf::36                    0                       # What read queue length does an incoming req see
system.mem_cntrls8.rdQLenPdf::37                    0                       # What read queue length does an incoming req see
system.mem_cntrls8.rdQLenPdf::38                    0                       # What read queue length does an incoming req see
system.mem_cntrls8.rdQLenPdf::39                    0                       # What read queue length does an incoming req see
system.mem_cntrls8.rdQLenPdf::40                    0                       # What read queue length does an incoming req see
system.mem_cntrls8.rdQLenPdf::41                    0                       # What read queue length does an incoming req see
system.mem_cntrls8.rdQLenPdf::42                    0                       # What read queue length does an incoming req see
system.mem_cntrls8.rdQLenPdf::43                    0                       # What read queue length does an incoming req see
system.mem_cntrls8.rdQLenPdf::44                    0                       # What read queue length does an incoming req see
system.mem_cntrls8.rdQLenPdf::45                    0                       # What read queue length does an incoming req see
system.mem_cntrls8.rdQLenPdf::46                    0                       # What read queue length does an incoming req see
system.mem_cntrls8.rdQLenPdf::47                    0                       # What read queue length does an incoming req see
system.mem_cntrls8.rdQLenPdf::48                    0                       # What read queue length does an incoming req see
system.mem_cntrls8.rdQLenPdf::49                    0                       # What read queue length does an incoming req see
system.mem_cntrls8.rdQLenPdf::50                    0                       # What read queue length does an incoming req see
system.mem_cntrls8.rdQLenPdf::51                    0                       # What read queue length does an incoming req see
system.mem_cntrls8.rdQLenPdf::52                    0                       # What read queue length does an incoming req see
system.mem_cntrls8.rdQLenPdf::53                    0                       # What read queue length does an incoming req see
system.mem_cntrls8.rdQLenPdf::54                    0                       # What read queue length does an incoming req see
system.mem_cntrls8.rdQLenPdf::55                    0                       # What read queue length does an incoming req see
system.mem_cntrls8.rdQLenPdf::56                    0                       # What read queue length does an incoming req see
system.mem_cntrls8.rdQLenPdf::57                    0                       # What read queue length does an incoming req see
system.mem_cntrls8.rdQLenPdf::58                    0                       # What read queue length does an incoming req see
system.mem_cntrls8.rdQLenPdf::59                    0                       # What read queue length does an incoming req see
system.mem_cntrls8.rdQLenPdf::60                    0                       # What read queue length does an incoming req see
system.mem_cntrls8.rdQLenPdf::61                    0                       # What read queue length does an incoming req see
system.mem_cntrls8.rdQLenPdf::62                    0                       # What read queue length does an incoming req see
system.mem_cntrls8.rdQLenPdf::63                    0                       # What read queue length does an incoming req see
system.mem_cntrls8.wrQLenPdf::0                     0                       # What write queue length does an incoming req see
system.mem_cntrls8.wrQLenPdf::1                     0                       # What write queue length does an incoming req see
system.mem_cntrls8.wrQLenPdf::2                     0                       # What write queue length does an incoming req see
system.mem_cntrls8.wrQLenPdf::3                     0                       # What write queue length does an incoming req see
system.mem_cntrls8.wrQLenPdf::4                     0                       # What write queue length does an incoming req see
system.mem_cntrls8.wrQLenPdf::5                     0                       # What write queue length does an incoming req see
system.mem_cntrls8.wrQLenPdf::6                     0                       # What write queue length does an incoming req see
system.mem_cntrls8.wrQLenPdf::7                     0                       # What write queue length does an incoming req see
system.mem_cntrls8.wrQLenPdf::8                     0                       # What write queue length does an incoming req see
system.mem_cntrls8.wrQLenPdf::9                     0                       # What write queue length does an incoming req see
system.mem_cntrls8.wrQLenPdf::10                    0                       # What write queue length does an incoming req see
system.mem_cntrls8.wrQLenPdf::11                    0                       # What write queue length does an incoming req see
system.mem_cntrls8.wrQLenPdf::12                    0                       # What write queue length does an incoming req see
system.mem_cntrls8.wrQLenPdf::13                    0                       # What write queue length does an incoming req see
system.mem_cntrls8.wrQLenPdf::14                    0                       # What write queue length does an incoming req see
system.mem_cntrls8.wrQLenPdf::15                    0                       # What write queue length does an incoming req see
system.mem_cntrls8.wrQLenPdf::16                    0                       # What write queue length does an incoming req see
system.mem_cntrls8.wrQLenPdf::17                    0                       # What write queue length does an incoming req see
system.mem_cntrls8.wrQLenPdf::18                    0                       # What write queue length does an incoming req see
system.mem_cntrls8.wrQLenPdf::19                    0                       # What write queue length does an incoming req see
system.mem_cntrls8.wrQLenPdf::20                    0                       # What write queue length does an incoming req see
system.mem_cntrls8.wrQLenPdf::21                    0                       # What write queue length does an incoming req see
system.mem_cntrls8.wrQLenPdf::22                    0                       # What write queue length does an incoming req see
system.mem_cntrls8.wrQLenPdf::23                    0                       # What write queue length does an incoming req see
system.mem_cntrls8.wrQLenPdf::24                    0                       # What write queue length does an incoming req see
system.mem_cntrls8.wrQLenPdf::25                    0                       # What write queue length does an incoming req see
system.mem_cntrls8.wrQLenPdf::26                    0                       # What write queue length does an incoming req see
system.mem_cntrls8.wrQLenPdf::27                    0                       # What write queue length does an incoming req see
system.mem_cntrls8.wrQLenPdf::28                    0                       # What write queue length does an incoming req see
system.mem_cntrls8.wrQLenPdf::29                    0                       # What write queue length does an incoming req see
system.mem_cntrls8.wrQLenPdf::30                    0                       # What write queue length does an incoming req see
system.mem_cntrls8.wrQLenPdf::31                    0                       # What write queue length does an incoming req see
system.mem_cntrls8.wrQLenPdf::32                    0                       # What write queue length does an incoming req see
system.mem_cntrls8.wrQLenPdf::33                    0                       # What write queue length does an incoming req see
system.mem_cntrls8.wrQLenPdf::34                    0                       # What write queue length does an incoming req see
system.mem_cntrls8.wrQLenPdf::35                    0                       # What write queue length does an incoming req see
system.mem_cntrls8.wrQLenPdf::36                    0                       # What write queue length does an incoming req see
system.mem_cntrls8.wrQLenPdf::37                    0                       # What write queue length does an incoming req see
system.mem_cntrls8.wrQLenPdf::38                    0                       # What write queue length does an incoming req see
system.mem_cntrls8.wrQLenPdf::39                    0                       # What write queue length does an incoming req see
system.mem_cntrls8.wrQLenPdf::40                    0                       # What write queue length does an incoming req see
system.mem_cntrls8.wrQLenPdf::41                    0                       # What write queue length does an incoming req see
system.mem_cntrls8.wrQLenPdf::42                    0                       # What write queue length does an incoming req see
system.mem_cntrls8.wrQLenPdf::43                    0                       # What write queue length does an incoming req see
system.mem_cntrls8.wrQLenPdf::44                    0                       # What write queue length does an incoming req see
system.mem_cntrls8.wrQLenPdf::45                    0                       # What write queue length does an incoming req see
system.mem_cntrls8.wrQLenPdf::46                    0                       # What write queue length does an incoming req see
system.mem_cntrls8.wrQLenPdf::47                    0                       # What write queue length does an incoming req see
system.mem_cntrls8.wrQLenPdf::48                    0                       # What write queue length does an incoming req see
system.mem_cntrls8.wrQLenPdf::49                    0                       # What write queue length does an incoming req see
system.mem_cntrls8.wrQLenPdf::50                    0                       # What write queue length does an incoming req see
system.mem_cntrls8.wrQLenPdf::51                    0                       # What write queue length does an incoming req see
system.mem_cntrls8.wrQLenPdf::52                    0                       # What write queue length does an incoming req see
system.mem_cntrls8.wrQLenPdf::53                    0                       # What write queue length does an incoming req see
system.mem_cntrls8.wrQLenPdf::54                    0                       # What write queue length does an incoming req see
system.mem_cntrls8.wrQLenPdf::55                    0                       # What write queue length does an incoming req see
system.mem_cntrls8.wrQLenPdf::56                    0                       # What write queue length does an incoming req see
system.mem_cntrls8.wrQLenPdf::57                    0                       # What write queue length does an incoming req see
system.mem_cntrls8.wrQLenPdf::58                    0                       # What write queue length does an incoming req see
system.mem_cntrls8.wrQLenPdf::59                    0                       # What write queue length does an incoming req see
system.mem_cntrls8.wrQLenPdf::60                    0                       # What write queue length does an incoming req see
system.mem_cntrls8.wrQLenPdf::61                    0                       # What write queue length does an incoming req see
system.mem_cntrls8.wrQLenPdf::62                    0                       # What write queue length does an incoming req see
system.mem_cntrls8.wrQLenPdf::63                    0                       # What write queue length does an incoming req see
system.mem_cntrls8.wrQLenPdf::64                    0                       # What write queue length does an incoming req see
system.mem_cntrls8.wrQLenPdf::65                    0                       # What write queue length does an incoming req see
system.mem_cntrls8.wrQLenPdf::66                    0                       # What write queue length does an incoming req see
system.mem_cntrls8.wrQLenPdf::67                    0                       # What write queue length does an incoming req see
system.mem_cntrls8.wrQLenPdf::68                    0                       # What write queue length does an incoming req see
system.mem_cntrls8.wrQLenPdf::69                    0                       # What write queue length does an incoming req see
system.mem_cntrls8.wrQLenPdf::70                    0                       # What write queue length does an incoming req see
system.mem_cntrls8.wrQLenPdf::71                    0                       # What write queue length does an incoming req see
system.mem_cntrls8.wrQLenPdf::72                    0                       # What write queue length does an incoming req see
system.mem_cntrls8.wrQLenPdf::73                    0                       # What write queue length does an incoming req see
system.mem_cntrls8.wrQLenPdf::74                    0                       # What write queue length does an incoming req see
system.mem_cntrls8.wrQLenPdf::75                    0                       # What write queue length does an incoming req see
system.mem_cntrls8.wrQLenPdf::76                    0                       # What write queue length does an incoming req see
system.mem_cntrls8.wrQLenPdf::77                    0                       # What write queue length does an incoming req see
system.mem_cntrls8.wrQLenPdf::78                    0                       # What write queue length does an incoming req see
system.mem_cntrls8.wrQLenPdf::79                    0                       # What write queue length does an incoming req see
system.mem_cntrls8.wrQLenPdf::80                    0                       # What write queue length does an incoming req see
system.mem_cntrls8.wrQLenPdf::81                    0                       # What write queue length does an incoming req see
system.mem_cntrls8.wrQLenPdf::82                    0                       # What write queue length does an incoming req see
system.mem_cntrls8.wrQLenPdf::83                    0                       # What write queue length does an incoming req see
system.mem_cntrls8.wrQLenPdf::84                    0                       # What write queue length does an incoming req see
system.mem_cntrls8.wrQLenPdf::85                    0                       # What write queue length does an incoming req see
system.mem_cntrls8.wrQLenPdf::86                    0                       # What write queue length does an incoming req see
system.mem_cntrls8.wrQLenPdf::87                    0                       # What write queue length does an incoming req see
system.mem_cntrls8.wrQLenPdf::88                    0                       # What write queue length does an incoming req see
system.mem_cntrls8.wrQLenPdf::89                    0                       # What write queue length does an incoming req see
system.mem_cntrls8.wrQLenPdf::90                    0                       # What write queue length does an incoming req see
system.mem_cntrls8.wrQLenPdf::91                    0                       # What write queue length does an incoming req see
system.mem_cntrls8.wrQLenPdf::92                    0                       # What write queue length does an incoming req see
system.mem_cntrls8.wrQLenPdf::93                    0                       # What write queue length does an incoming req see
system.mem_cntrls8.wrQLenPdf::94                    0                       # What write queue length does an incoming req see
system.mem_cntrls8.wrQLenPdf::95                    0                       # What write queue length does an incoming req see
system.mem_cntrls8.wrQLenPdf::96                    0                       # What write queue length does an incoming req see
system.mem_cntrls8.wrQLenPdf::97                    0                       # What write queue length does an incoming req see
system.mem_cntrls8.wrQLenPdf::98                    0                       # What write queue length does an incoming req see
system.mem_cntrls8.wrQLenPdf::99                    0                       # What write queue length does an incoming req see
system.mem_cntrls8.wrQLenPdf::100                   0                       # What write queue length does an incoming req see
system.mem_cntrls8.wrQLenPdf::101                   0                       # What write queue length does an incoming req see
system.mem_cntrls8.wrQLenPdf::102                   0                       # What write queue length does an incoming req see
system.mem_cntrls8.wrQLenPdf::103                   0                       # What write queue length does an incoming req see
system.mem_cntrls8.wrQLenPdf::104                   0                       # What write queue length does an incoming req see
system.mem_cntrls8.wrQLenPdf::105                   0                       # What write queue length does an incoming req see
system.mem_cntrls8.wrQLenPdf::106                   0                       # What write queue length does an incoming req see
system.mem_cntrls8.wrQLenPdf::107                   0                       # What write queue length does an incoming req see
system.mem_cntrls8.wrQLenPdf::108                   0                       # What write queue length does an incoming req see
system.mem_cntrls8.wrQLenPdf::109                   0                       # What write queue length does an incoming req see
system.mem_cntrls8.wrQLenPdf::110                   0                       # What write queue length does an incoming req see
system.mem_cntrls8.wrQLenPdf::111                   0                       # What write queue length does an incoming req see
system.mem_cntrls8.wrQLenPdf::112                   0                       # What write queue length does an incoming req see
system.mem_cntrls8.wrQLenPdf::113                   0                       # What write queue length does an incoming req see
system.mem_cntrls8.wrQLenPdf::114                   0                       # What write queue length does an incoming req see
system.mem_cntrls8.wrQLenPdf::115                   0                       # What write queue length does an incoming req see
system.mem_cntrls8.wrQLenPdf::116                   0                       # What write queue length does an incoming req see
system.mem_cntrls8.wrQLenPdf::117                   0                       # What write queue length does an incoming req see
system.mem_cntrls8.wrQLenPdf::118                   0                       # What write queue length does an incoming req see
system.mem_cntrls8.wrQLenPdf::119                   0                       # What write queue length does an incoming req see
system.mem_cntrls8.wrQLenPdf::120                   0                       # What write queue length does an incoming req see
system.mem_cntrls8.wrQLenPdf::121                   0                       # What write queue length does an incoming req see
system.mem_cntrls8.wrQLenPdf::122                   0                       # What write queue length does an incoming req see
system.mem_cntrls8.wrQLenPdf::123                   0                       # What write queue length does an incoming req see
system.mem_cntrls8.wrQLenPdf::124                   0                       # What write queue length does an incoming req see
system.mem_cntrls8.wrQLenPdf::125                   0                       # What write queue length does an incoming req see
system.mem_cntrls8.wrQLenPdf::126                   0                       # What write queue length does an incoming req see
system.mem_cntrls8.wrQLenPdf::127                   0                       # What write queue length does an incoming req see
system.mem_cntrls8.bytesReadDRAM                    0                       # Total number of bytes read from DRAM
system.mem_cntrls8.bytesReadWrQ                     0                       # Total number of bytes read from write queue
system.mem_cntrls8.bytesWritten                     0                       # Total number of bytes written to DRAM
system.mem_cntrls8.bytesReadSys                     0                       # Total read bytes from the system interface side
system.mem_cntrls8.bytesWrittenSys                  0                       # Total written bytes from the system interface side
system.mem_cntrls8.avgRdBW                       0.00                       # Average DRAM read bandwidth in MiByte/s
system.mem_cntrls8.avgWrBW                       0.00                       # Average achieved write bandwidth in MiByte/s
system.mem_cntrls8.avgRdBWSys                    0.00                       # Average system read bandwidth in MiByte/s
system.mem_cntrls8.avgWrBWSys                    0.00                       # Average system write bandwidth in MiByte/s
system.mem_cntrls8.peakBW                    19207.00                       # Theoretical peak bandwidth in MiByte/s
system.mem_cntrls8.busUtil                       0.00                       # Data bus utilization in percentage
system.mem_cntrls8.busUtilRead                   0.00                       # Data bus utilization in percentage for reads
system.mem_cntrls8.busUtilWrite                  0.00                       # Data bus utilization in percentage for writes
system.mem_cntrls8.totGap                           0                       # Total gap between requests
system.mem_cntrls8.avgGap                         nan                       # Average gap between requests
system.mem_cntrls8.pageHitRate                    nan                       # Row buffer hit rate, read and write combined
system.mem_cntrls8.rank1.actEnergy                  0                       # Energy for activate commands per rank (pJ)
system.mem_cntrls8.rank1.preEnergy                  0                       # Energy for precharge commands per rank (pJ)
system.mem_cntrls8.rank1.readEnergy                 0                       # Energy for read commands per rank (pJ)
system.mem_cntrls8.rank1.writeEnergy                0                       # Energy for write commands per rank (pJ)
system.mem_cntrls8.rank1.refreshEnergy              0                       # Energy for refresh commands per rank (pJ)
system.mem_cntrls8.rank1.actBackEnergy              0                       # Energy for active background per rank (pJ)
system.mem_cntrls8.rank1.preBackEnergy   16562148425689.574219                       # Energy for precharge background per rank (pJ)
system.mem_cntrls8.rank1.actPowerDownEnergy            0                       # Energy for active power-down per rank (pJ)
system.mem_cntrls8.rank1.prePowerDownEnergy            0                       # Energy for precharge power-down per rank (pJ)
system.mem_cntrls8.rank1.selfRefreshEnergy            0                       # Energy for self refresh per rank (pJ)
system.mem_cntrls8.rank1.totalEnergy     16562148425689.574219                       # Total energy per rank (pJ)
system.mem_cntrls8.rank1.averagePower      652.800000                       # Core power per rank (mW)
system.mem_cntrls8.rank1.totalIdleTime              0                       # Total Idle time Per DRAM Rank
system.mem_cntrls8.rank1.memoryStateTime::IDLE 25370938151935                       # Time in different power states
system.mem_cntrls8.rank1.memoryStateTime::REF            0                       # Time in different power states
system.mem_cntrls8.rank1.memoryStateTime::SREF            0                       # Time in different power states
system.mem_cntrls8.rank1.memoryStateTime::PRE_PDN            0                       # Time in different power states
system.mem_cntrls8.rank1.memoryStateTime::ACT            0                       # Time in different power states
system.mem_cntrls8.rank1.memoryStateTime::ACT_PDN            0                       # Time in different power states
system.mem_cntrls8.rank0.actEnergy                  0                       # Energy for activate commands per rank (pJ)
system.mem_cntrls8.rank0.preEnergy                  0                       # Energy for precharge commands per rank (pJ)
system.mem_cntrls8.rank0.readEnergy                 0                       # Energy for read commands per rank (pJ)
system.mem_cntrls8.rank0.writeEnergy                0                       # Energy for write commands per rank (pJ)
system.mem_cntrls8.rank0.refreshEnergy              0                       # Energy for refresh commands per rank (pJ)
system.mem_cntrls8.rank0.actBackEnergy              0                       # Energy for active background per rank (pJ)
system.mem_cntrls8.rank0.preBackEnergy   16562148425689.574219                       # Energy for precharge background per rank (pJ)
system.mem_cntrls8.rank0.actPowerDownEnergy            0                       # Energy for active power-down per rank (pJ)
system.mem_cntrls8.rank0.prePowerDownEnergy            0                       # Energy for precharge power-down per rank (pJ)
system.mem_cntrls8.rank0.selfRefreshEnergy            0                       # Energy for self refresh per rank (pJ)
system.mem_cntrls8.rank0.totalEnergy     16562148425689.574219                       # Total energy per rank (pJ)
system.mem_cntrls8.rank0.averagePower      652.800000                       # Core power per rank (mW)
system.mem_cntrls8.rank0.totalIdleTime              0                       # Total Idle time Per DRAM Rank
system.mem_cntrls8.rank0.memoryStateTime::IDLE 25370938151935                       # Time in different power states
system.mem_cntrls8.rank0.memoryStateTime::REF            0                       # Time in different power states
system.mem_cntrls8.rank0.memoryStateTime::SREF            0                       # Time in different power states
system.mem_cntrls8.rank0.memoryStateTime::PRE_PDN            0                       # Time in different power states
system.mem_cntrls8.rank0.memoryStateTime::ACT            0                       # Time in different power states
system.mem_cntrls8.rank0.memoryStateTime::ACT_PDN            0                       # Time in different power states
system.mem_cntrls7.pwrStateResidencyTicks::UNDEFINED 25370938151935                       # Cumulative time (in ticks) in various power states
system.mem_cntrls7.priorityMinLatency    0.000000000000                       # per QoS priority minimum request to response latency (s)
system.mem_cntrls7.priorityMaxLatency    0.000000000000                       # per QoS priority maximum request to response latency (s)
system.mem_cntrls7.numReadWriteTurnArounds            0                       # Number of turnarounds from READ to WRITE
system.mem_cntrls7.numWriteReadTurnArounds            0                       # Number of turnarounds from WRITE to READ
system.mem_cntrls7.numStayReadState                 0                       # Number of times bus staying in READ state
system.mem_cntrls7.numStayWriteState                0                       # Number of times bus staying in WRITE state
system.mem_cntrls7.readReqs                         0                       # Number of read requests accepted
system.mem_cntrls7.writeReqs                        0                       # Number of write requests accepted
system.mem_cntrls7.readBursts                       0                       # Number of DRAM read bursts, including those serviced by the write queue
system.mem_cntrls7.writeBursts                      0                       # Number of DRAM write bursts, including those merged in the write queue
system.mem_cntrls7.servicedByWrQ                    0                       # Number of DRAM read bursts serviced by the write queue
system.mem_cntrls7.mergedWrBursts                   0                       # Number of DRAM write bursts merged with an existing one
system.mem_cntrls7.neitherReadNorWriteReqs            0                       # Number of requests that are neither read nor write
system.mem_cntrls7.perBankRdBursts::0               0                       # Per bank write bursts
system.mem_cntrls7.perBankRdBursts::1               0                       # Per bank write bursts
system.mem_cntrls7.perBankRdBursts::2               0                       # Per bank write bursts
system.mem_cntrls7.perBankRdBursts::3               0                       # Per bank write bursts
system.mem_cntrls7.perBankRdBursts::4               0                       # Per bank write bursts
system.mem_cntrls7.perBankRdBursts::5               0                       # Per bank write bursts
system.mem_cntrls7.perBankRdBursts::6               0                       # Per bank write bursts
system.mem_cntrls7.perBankRdBursts::7               0                       # Per bank write bursts
system.mem_cntrls7.perBankRdBursts::8               0                       # Per bank write bursts
system.mem_cntrls7.perBankRdBursts::9               0                       # Per bank write bursts
system.mem_cntrls7.perBankRdBursts::10              0                       # Per bank write bursts
system.mem_cntrls7.perBankRdBursts::11              0                       # Per bank write bursts
system.mem_cntrls7.perBankRdBursts::12              0                       # Per bank write bursts
system.mem_cntrls7.perBankRdBursts::13              0                       # Per bank write bursts
system.mem_cntrls7.perBankRdBursts::14              0                       # Per bank write bursts
system.mem_cntrls7.perBankRdBursts::15              0                       # Per bank write bursts
system.mem_cntrls7.perBankRdBursts::16              0                       # Per bank write bursts
system.mem_cntrls7.perBankRdBursts::17              0                       # Per bank write bursts
system.mem_cntrls7.perBankRdBursts::18              0                       # Per bank write bursts
system.mem_cntrls7.perBankRdBursts::19              0                       # Per bank write bursts
system.mem_cntrls7.perBankRdBursts::20              0                       # Per bank write bursts
system.mem_cntrls7.perBankRdBursts::21              0                       # Per bank write bursts
system.mem_cntrls7.perBankRdBursts::22              0                       # Per bank write bursts
system.mem_cntrls7.perBankRdBursts::23              0                       # Per bank write bursts
system.mem_cntrls7.perBankRdBursts::24              0                       # Per bank write bursts
system.mem_cntrls7.perBankRdBursts::25              0                       # Per bank write bursts
[...]
system.iobus.trans_dist::ReadResp              303210                       # Transaction distribution
system.iobus.trans_dist::WriteReq             1173288                       # Transaction distribution
system.iobus.trans_dist::WriteResp            1173288                       # Transaction distribution
system.iobus.pkt_count_system.bridge.master::system.pc.south_bridge.cmos.pio           36                       # Packet count per connected master and slave (bytes)
system.iobus.pkt_count_system.bridge.master::system.pc.south_bridge.ide.pio       101238                       # Packet count per connected master and slave (bytes)
system.iobus.pkt_count_system.bridge.master::system.pc.south_bridge.keyboard.pio          268                       # Packet count per connected master and slave (bytes)
system.iobus.pkt_count_system.bridge.master::system.pc.south_bridge.pic1.pio          100                       # Packet count per connected master and slave (bytes)
system.iobus.pkt_count_system.bridge.master::system.pc.south_bridge.pic2.pio           50                       # Packet count per connected master and slave (bytes)
system.iobus.pkt_count_system.bridge.master::system.pc.south_bridge.pit.pio           56                       # Packet count per connected master and slave (bytes)
system.iobus.pkt_count_system.bridge.master::system.pc.south_bridge.speaker.pio         1104                       # Packet count per connected master and slave (bytes)
system.iobus.pkt_count_system.bridge.master::system.pc.south_bridge.io_apic.pio          840                       # Packet count per connected master and slave (bytes)
system.iobus.pkt_count_system.bridge.master::system.pc.i_dont_exist1.pio           12                       # Packet count per connected master and slave (bytes)
system.iobus.pkt_count_system.bridge.master::system.pc.behind_pci.pio            2                       # Packet count per connected master and slave (bytes)
system.iobus.pkt_count_system.bridge.master::system.pc.com_1.pio       138186                       # Packet count per connected master and slave (bytes)
system.iobus.pkt_count_system.bridge.master::system.pc.fake_com_2.pio           12                       # Packet count per connected master and slave (bytes)
system.iobus.pkt_count_system.bridge.master::system.pc.fake_com_3.pio           12                       # Packet count per connected master and slave (bytes)
system.iobus.pkt_count_system.bridge.master::system.pc.fake_com_4.pio           12                       # Packet count per connected master and slave (bytes)
system.iobus.pkt_count_system.bridge.master::system.pc.pci_host.pio        33412                       # Packet count per connected master and slave (bytes)
system.iobus.pkt_count_system.bridge.master::total       275340                       # Packet count per connected master and slave (bytes)
system.iobus.pkt_count_system.pc.south_bridge.ide.dma::system.iocache.cpu_side      2655372                       # Packet count per connected master and slave (bytes)
system.iobus.pkt_count_system.pc.south_bridge.ide.dma::total      2655372                       # Packet count per connected master and slave (bytes)
system.iobus.pkt_count_system.pc.south_bridge.io_apic.int_master::system.apicbridge.slave        22284                       # Packet count per connected master and slave (bytes)
system.iobus.pkt_count_system.pc.south_bridge.io_apic.int_master::total        22284                       # Packet count per connected master and slave (bytes)
system.iobus.pkt_count::total                 2952996                       # Packet count per connected master and slave (bytes)
system.iobus.pkt_size_system.bridge.master::system.pc.south_bridge.cmos.pio           18                       # Cumulative packet size per connected master and slave (bytes)
system.iobus.pkt_size_system.bridge.master::system.pc.south_bridge.ide.pio        57644                       # Cumulative packet size per connected master and slave (bytes)
system.iobus.pkt_size_system.bridge.master::system.pc.south_bridge.keyboard.pio          134                       # Cumulative packet size per connected master and slave (bytes)
system.iobus.pkt_size_system.bridge.master::system.pc.south_bridge.pic1.pio           50                       # Cumulative packet size per connected master and slave (bytes)
system.iobus.pkt_size_system.bridge.master::system.pc.south_bridge.pic2.pio           25                       # Cumulative packet size per connected master and slave (bytes)
system.iobus.pkt_size_system.bridge.master::system.pc.south_bridge.pit.pio           28                       # Cumulative packet size per connected master and slave (bytes)
system.iobus.pkt_size_system.bridge.master::system.pc.south_bridge.speaker.pio          552                       # Cumulative packet size per connected master and slave (bytes)
system.iobus.pkt_size_system.bridge.master::system.pc.south_bridge.io_apic.pio         1680                       # Cumulative packet size per connected master and slave (bytes)
system.iobus.pkt_size_system.bridge.master::system.pc.i_dont_exist1.pio            6                       # Cumulative packet size per connected master and slave (bytes)
system.iobus.pkt_size_system.bridge.master::system.pc.behind_pci.pio            1                       # Cumulative packet size per connected master and slave (bytes)
system.iobus.pkt_size_system.bridge.master::system.pc.com_1.pio        69093                       # Cumulative packet size per connected master and slave (bytes)
system.iobus.pkt_size_system.bridge.master::system.pc.fake_com_2.pio            6                       # Cumulative packet size per connected master and slave (bytes)
system.iobus.pkt_size_system.bridge.master::system.pc.fake_com_3.pio            6                       # Cumulative packet size per connected master and slave (bytes)
system.iobus.pkt_size_system.bridge.master::system.pc.fake_com_4.pio            6                       # Cumulative packet size per connected master and slave (bytes)
system.iobus.pkt_size_system.bridge.master::system.pc.pci_host.pio        66576                       # Cumulative packet size per connected master and slave (bytes)
system.iobus.pkt_size_system.bridge.master::total       195825                       # Cumulative packet size per connected master and slave (bytes)
system.iobus.pkt_size_system.pc.south_bridge.ide.dma::system.iocache.cpu_side     84478768                       # Cumulative packet size per connected master and slave (bytes)
system.iobus.pkt_size_system.pc.south_bridge.ide.dma::total     84478768                       # Cumulative packet size per connected master and slave (bytes)
system.iobus.pkt_size_system.pc.south_bridge.io_apic.int_master::system.apicbridge.slave        44568                       # Cumulative packet size per connected master and slave (bytes)
system.iobus.pkt_size_system.pc.south_bridge.io_apic.int_master::total        44568                       # Cumulative packet size per connected master and slave (bytes)
system.iobus.pkt_size::total                 84719161                       # Cumulative packet size per connected master and slave (bytes)
system.cpu.pwrStateResidencyTicks::ON    25370938151935                       # Cumulative time (in ticks) in various power states
system.cpu.icache.pwrStateResidencyTicks::UNDEFINED 25370938151935                       # Cumulative time (in ticks) in various power states
system.cpu.icache.blocked_cycles::no_mshrs            0                       # number of cycles access was blocked
system.cpu.icache.blocked_cycles::no_targets            0                       # number of cycles access was blocked
system.cpu.icache.blocked::no_mshrs                 0                       # number of cycles access was blocked
system.cpu.icache.blocked::no_targets               0                       # number of cycles access was blocked
system.cpu.icache.avg_blocked_cycles::no_mshrs          nan                       # average number of cycles each access was blocked
system.cpu.icache.avg_blocked_cycles::no_targets          nan                       # average number of cycles each access was blocked
system.cpu.icache.replacements                      0                       # number of replacements
system.cpu.icache.prefetcher.pwrStateResidencyTicks::UNDEFINED 25370938151935                       # Cumulative time (in ticks) in various power states
system.cpu.icache.tags.pwrStateResidencyTicks::UNDEFINED 25370938151935                       # Cumulative time (in ticks) in various power states
system.cpu.icache.tags.tagsinuse                    0                       # Cycle average of tags in use
system.cpu.icache.tags.total_refs                   0                       # Total number of references to valid blocks.
system.cpu.icache.tags.sampled_refs                 0                       # Sample count of references to valid blocks.
system.cpu.icache.tags.avg_refs                   nan                       # Average number of references to valid blocks.
system.cpu.icache.tags.warmup_cycle                 0                       # Cycle when the warmup percentage was hit.
system.cpu.icache.tags.tag_accesses                 0                       # Number of tag accesses
system.cpu.icache.tags.data_accesses                0                       # Number of data accesses
system.cpu.dtb.walker.pwrStateResidencyTicks::UNDEFINED 25370938151935                       # Cumulative time (in ticks) in various power states
system.cpu.interrupts.clk_domain.clock           6960                       # Clock period in ticks
system.cpu.l2cache.pwrStateResidencyTicks::UNDEFINED 25370938151935                       # Cumulative time (in ticks) in various power states
system.cpu.l2cache.blocked_cycles::no_mshrs            0                       # number of cycles access was blocked
system.cpu.l2cache.blocked_cycles::no_targets            0                       # number of cycles access was blocked
system.cpu.l2cache.blocked::no_mshrs                0                       # number of cycles access was blocked
system.cpu.l2cache.blocked::no_targets              0                       # number of cycles access was blocked
system.cpu.l2cache.avg_blocked_cycles::no_mshrs          nan                       # average number of cycles each access was blocked
system.cpu.l2cache.avg_blocked_cycles::no_targets          nan                       # average number of cycles each access was blocked
system.cpu.l2cache.replacements                     0                       # number of replacements
system.cpu.l2cache.prefetcher.pwrStateResidencyTicks::UNDEFINED 25370938151935                       # Cumulative time (in ticks) in various power states
system.cpu.l2cache.tags.pwrStateResidencyTicks::UNDEFINED 25370938151935                       # Cumulative time (in ticks) in various power states
system.cpu.l2cache.tags.tagsinuse                   0                       # Cycle average of tags in use
system.cpu.l2cache.tags.total_refs                  0                       # Total number of references to valid blocks.
system.cpu.l2cache.tags.sampled_refs                0                       # Sample count of references to valid blocks.
system.cpu.l2cache.tags.avg_refs                  nan                       # Average number of references to valid blocks.
system.cpu.l2cache.tags.warmup_cycle                0                       # Cycle when the warmup percentage was hit.
system.cpu.l2cache.tags.tag_accesses                0                       # Number of tag accesses
system.cpu.l2cache.tags.data_accesses               0                       # Number of data accesses
system.cpu.itb.walker.pwrStateResidencyTicks::UNDEFINED 25370938151935                       # Cumulative time (in ticks) in various power states
system.cpu.mmucache.pwrStateResidencyTicks::UNDEFINED 25370938151935                       # Cumulative time (in ticks) in various power states
system.cpu.mmucache.blocked_cycles::no_mshrs            0                       # number of cycles access was blocked
system.cpu.mmucache.blocked_cycles::no_targets            0                       # number of cycles access was blocked
system.cpu.mmucache.blocked::no_mshrs               0                       # number of cycles access was blocked
system.cpu.mmucache.blocked::no_targets             0                       # number of cycles access was blocked
system.cpu.mmucache.avg_blocked_cycles::no_mshrs          nan                       # average number of cycles each access was blocked
system.cpu.mmucache.avg_blocked_cycles::no_targets          nan                       # average number of cycles each access was blocked
system.cpu.mmucache.replacements                    0                       # number of replacements
system.cpu.mmucache.mmubus.pwrStateResidencyTicks::UNDEFINED 25370938151935                       # Cumulative time (in ticks) in various power states
system.cpu.mmucache.mmubus.snoops                   0                       # Total snoops (count)
system.cpu.mmucache.mmubus.snoopTraffic             0                       # Total snoop traffic (bytes)
system.cpu.mmucache.mmubus.snoop_fanout::samples            0                       # Request fanout histogram
system.cpu.mmucache.mmubus.snoop_fanout::mean          nan                       # Request fanout histogram
system.cpu.mmucache.mmubus.snoop_fanout::stdev          nan                       # Request fanout histogram
system.cpu.mmucache.mmubus.snoop_fanout::underflows            0                       # Request fanout histogram
system.cpu.mmucache.mmubus.snoop_fanout::0            0                       # Request fanout histogram
system.cpu.mmucache.mmubus.snoop_fanout::overflows            0                       # Request fanout histogram
system.cpu.mmucache.mmubus.snoop_fanout::min_value            0                       # Request fanout histogram
system.cpu.mmucache.mmubus.snoop_fanout::max_value            0                       # Request fanout histogram
system.cpu.mmucache.mmubus.snoop_fanout::total            0                       # Request fanout histogram
system.cpu.mmucache.tags.pwrStateResidencyTicks::UNDEFINED 25370938151935                       # Cumulative time (in ticks) in various power states
system.cpu.mmucache.tags.tagsinuse                  0                       # Cycle average of tags in use
system.cpu.mmucache.tags.total_refs                 0                       # Total number of references to valid blocks.
system.cpu.mmucache.tags.sampled_refs               0                       # Sample count of references to valid blocks.
system.cpu.mmucache.tags.avg_refs                 nan                       # Average number of references to valid blocks.
system.cpu.mmucache.tags.warmup_cycle               0                       # Cycle when the warmup percentage was hit.
system.cpu.mmucache.tags.tag_accesses               0                       # Number of tag accesses
system.cpu.mmucache.tags.data_accesses              0                       # Number of data accesses
system.cpu.dcache.pwrStateResidencyTicks::UNDEFINED 25370938151935                       # Cumulative time (in ticks) in various power states
system.cpu.dcache.blocked_cycles::no_mshrs            0                       # number of cycles access was blocked
system.cpu.dcache.blocked_cycles::no_targets            0                       # number of cycles access was blocked
system.cpu.dcache.blocked::no_mshrs                 0                       # number of cycles access was blocked
system.cpu.dcache.blocked::no_targets               0                       # number of cycles access was blocked
system.cpu.dcache.avg_blocked_cycles::no_mshrs          nan                       # average number of cycles each access was blocked
system.cpu.dcache.avg_blocked_cycles::no_targets          nan                       # average number of cycles each access was blocked
system.cpu.dcache.replacements                      0                       # number of replacements
system.cpu.dcache.prefetcher.pwrStateResidencyTicks::UNDEFINED 25370938151935                       # Cumulative time (in ticks) in various power states
system.cpu.dcache.tags.pwrStateResidencyTicks::UNDEFINED 25370938151935                       # Cumulative time (in ticks) in various power states
system.cpu.dcache.tags.tagsinuse                    0                       # Cycle average of tags in use
system.cpu.dcache.tags.total_refs                   0                       # Total number of references to valid blocks.
system.cpu.dcache.tags.sampled_refs                 0                       # Sample count of references to valid blocks.
system.cpu.dcache.tags.avg_refs                   nan                       # Average number of references to valid blocks.
system.cpu.dcache.tags.warmup_cycle                 0                       # Cycle when the warmup percentage was hit.
system.cpu.dcache.tags.tag_accesses                 0                       # Number of tag accesses
system.cpu.dcache.tags.data_accesses                0                       # Number of data accesses
system.cpu.l2bus.pwrStateResidencyTicks::UNDEFINED 25370938151935                       # Cumulative time (in ticks) in various power states
system.cpu.l2bus.trans_dist::ReadReq            82870                       # Transaction distribution
system.cpu.l2bus.trans_dist::ReadResp           82870                       # Transaction distribution
system.cpu.l2bus.trans_dist::WriteReq           87070                       # Transaction distribution
system.cpu.l2bus.trans_dist::WriteResp          87070                       # Transaction distribution
system.cpu.l2bus.pkt_count_system.cpu.dcache.mem_side::system.cpu.l2cache.cpu_side       339880                       # Packet count per connected master and slave (bytes)
system.cpu.l2bus.pkt_count::total              339880                       # Packet count per connected master and slave (bytes)
system.cpu.l2bus.pkt_size_system.cpu.dcache.mem_side::system.cpu.l2cache.cpu_side       324905                       # Cumulative packet size per connected master and slave (bytes)
system.cpu.l2bus.pkt_size::total               324905                       # Cumulative packet size per connected master and slave (bytes)
system.cpu.l2bus.snoops                             0                       # Total snoops (count)
system.cpu.l2bus.snoopTraffic                       0                       # Total snoop traffic (bytes)
system.cpu.l2bus.snoop_fanout::samples              0                       # Request fanout histogram
system.cpu.l2bus.snoop_fanout::mean               nan                       # Request fanout histogram
system.cpu.l2bus.snoop_fanout::stdev              nan                       # Request fanout histogram
system.cpu.l2bus.snoop_fanout::underflows            0                       # Request fanout histogram
system.cpu.l2bus.snoop_fanout::0                    0                       # Request fanout histogram
system.cpu.l2bus.snoop_fanout::1                    0                       # Request fanout histogram
system.cpu.l2bus.snoop_fanout::2                    0                       # Request fanout histogram
system.cpu.l2bus.snoop_fanout::3                    0                       # Request fanout histogram
system.cpu.l2bus.snoop_fanout::overflows            0                       # Request fanout histogram
system.cpu.l2bus.snoop_fanout::min_value            0                       # Request fanout histogram
system.cpu.l2bus.snoop_fanout::max_value            0                       # Request fanout histogram
system.cpu.l2bus.snoop_fanout::total                0                       # Request fanout histogram

---------- End Simulation Statistics   ----------
