gem5 Simulator System.  http://gem5.org
gem5 is copyrighted software; use the --copyright option for details.

gem5 compiled Jul  9 2021 21:05:44
gem5 started Jul  9 2021 21:32:39
gem5 executing on 00d7b5b07229, pid 4688
command line: gem5/build/X86/gem5.opt -re --outdir=/autoperf/results/run_parsec/x264/simsmall/timing/1 configs-parsec-tests/run_parsec.py linux-4.19.83-stable/vmlinux-4.19.83 disk-image/parsec/parsec-image/parsec timing x264 simsmall 1

info: Standard input is not a terminal, disabling listeners.
Global frequency set at 1000000000000 ticks per second
      0: system.pc.south_bridge.cmos.rtc: Real-time clock set to Sun Jan  1 00:00:00 2012
Running the simulation
Using cpu: timing
exit first m5.simulate() because m5_exit instruction encountered
Unexpected termination of simulation!

Performance statistics:
Simulated time: 24.09s
Instructions executed: 3795133005
Ran a total of 24.0891645337 simulated seconds
Total wallclock time: 17.73s, 0.30 min
